Mass spectrum: Terbutryn; LC-ESI-QFT; MS2; CE: 60; R=17500; [M+H]+
Name: Terbutryn
Name: 2-N-tert-butyl-4-N-ethyl-6-methylsulfanyl-1,3,5-triazine-2,4-diamine
Formula: C10H19N5S
Exact mass: 241.1361
SMILES: CCNC1=NC(SC)=NC(NC(C)(C)C)=N1
InChI: InChI=1S/C10H19N5S/c1-6-11-7-12-8(15-10(2,3)4)14-9(13-7)16-5/h6H2,1-5H3,(H2,11,12,13,14,15)
Instrument: Q Exactive Orbitrap (Thermo Scientific)
Instrument type: LC-ESI-QFT
Ms type: MS2
Ion mode: POSITIVE
Ionization: ESI
Fragmentation mode: HCD
Collision energy: 60
Resolution: 17500
Column name: Acquity BEH C18 1.7um, 2.1x150mm (Waters)
Retention time: 16.441 min
Base peak: 79.0211
Precursor m/z: 242.1434
Precursor type: [M+H]+
Precursor intensity: 65398764.6875
m/z	relative intensity	assigned
61.0106	1	C2H5S+
68.0243	187	C2H2N3+
71.0603	3	C3H7N2+
74.0058	24	C2H4NS+
85.0508	120	C2H5N4+
85.076	18	C4H9N2+
91.0324	52	C2H7N2S+
96.0555	2	C4H6N3+
102.0119	1	C2H4N3S+
110.0461	63	C3H4N5+
110.0712	42	C5H8N3+
112.0618	2	C3H6N5+
116.0276	147	C3H6N3S+
125.0697	1	C4H7N5+
127.0978	3	C5H11N4+
138.0774	1	C5H8N5+
143.0256	2	C3H5N5S+
144.0591	1	C5H10N3S+
152.093	12	C6H10N5+
152.1182	5	C8H14N3+
158.0494	999	C4H8N5S+
186.0807	11	C6H12N5S+
200.0963	142	C7H14N5S+
242.1432	19	C10H20N5S+
