Mass spectrum: Terbutryn; LC-ESI-QFT; MS2; CE: 90; R=17500; [M+H]+
Name: Terbutryn
Name: 2-N-tert-butyl-4-N-ethyl-6-methylsulfanyl-1,3,5-triazine-2,4-diamine
Formula: C10H19N5S
Exact mass: 241.1361
SMILES: CCNC1=NC(SC)=NC(NC(C)(C)C)=N1
InChI: InChI=1S/C10H19N5S/c1-6-11-7-12-8(15-10(2,3)4)14-9(13-7)16-5/h6H2,1-5H3,(H2,11,12,13,14,15)
Instrument: Q Exactive Orbitrap (Thermo Scientific)
Instrument type: LC-ESI-QFT
Ms type: MS2
Ion mode: POSITIVE
Ionization: ESI
Fragmentation mode: HCD
Collision energy: 90
Resolution: 17500
Column name: Acquity BEH C18 1.7um, 2.1x150mm (Waters)
Retention time: 16.441 min
Base peak: 79.0211
Precursor m/z: 242.1434
Precursor type: [M+H]+
Precursor intensity: 58922320.3125
m/z	relative intensity	assigned
57.0448	3	C2H5N2+
58.065	1	C3H8N+
61.0107	3	C2H5S+
68.0243	999	C2H2N3+
71.0604	6	C3H7N2+
74.0058	266	C2H4NS+
85.0509	327	C2H5N4+
91.0325	86	C2H7N2S+
96.0556	3	C4H6N3+
99.0011	2	C3H3N2S+
99.0665	1	C3H7N4+
102.0121	3	C2H4N3S+
110.0462	149	C3H4N5+
112.0618	6	C3H6N5+
116.0277	243	C3H6N3S+
125.0696	1	C4H7N5+
141.0229	1	C4H5N4S+
143.0262	5	C3H5N5S+
158.0495	267	C4H8N5S+
200.0974	1	C7H14N5S+
