Mass spectrum: E-Cinnamic acid; LC-ESI-QFT; MS2; CE: 30; R=17500; [M-H]-
Name: E-Cinnamic acid
Name: (E)-3-phenylprop-2-enoic acid
Formula: C9H8O2
Exact mass: 148.0524
SMILES: OC(=O)\C=C\C1=CC=CC=C1
InChI: InChI=1S/C9H8O2/c10-9(11)7-6-8-4-2-1-3-5-8/h1-7H,(H,10,11)/b7-6+
Instrument: Q Exactive Orbitrap (Thermo Scientific)
Instrument type: LC-ESI-QFT
Ms type: MS2
Ion mode: NEGATIVE
Ionization: ESI
Fragmentation mode: HCD
Collision energy: 30
Resolution: 17500
Column name: Acquity BEH C18 1.7um, 2.1x150mm (Waters)
Retention time: 15.716 min
Base peak: 112.9857
Precursor m/z: 147.0452
Precursor type: [M-H]-
Precursor intensity: 1303234.655762
m/z	relative intensity	assigned
147.0453	999	C9H7O2-
