Mass spectrum: Phenolphthalein; LC-ESI-QFT; MS2; CE: 90; R=17500; [M+H]+
Name: Phenolphthalein
Name: 3,3-bis(4-hydroxyphenyl)-2-benzofuran-1-one
Formula: C20H14O4
Exact mass: 318.0892
SMILES: OC1=CC=C(C=C1)C1(OC(=O)C2=C1C=CC=C2)C1=CC=C(O)C=C1
InChI: InChI=1S/C20H14O4/c21-15-9-5-13(6-10-15)20(14-7-11-16(22)12-8-14)18-4-2-1-3-17(18)19(23)24-20/h1-12,21-22H
Instrument: Q Exactive Orbitrap (Thermo Scientific)
Instrument type: LC-ESI-QFT
Ms type: MS2
Ion mode: POSITIVE
Ionization: ESI
Fragmentation mode: HCD
Collision energy: 90
Resolution: 17500
Column name: Acquity BEH C18 1.7um, 2.1x150mm (Waters)
Retention time: 15.346 min
Base peak: 79.0211
Precursor m/z: 319.0965
Precursor type: [M+H]+
Precursor intensity: 7151438.375
m/z	relative intensity	assigned
50.0151	1	C4H2+
51.0229	1	C4H3+
53.0386	55	C4H5+
55.0178	8	C3H3O+
63.0229	3	C5H3+
65.0385	58	C5H5+
68.9971	2	C3HO2+
77.0385	21	C6H5+
81.0334	5	C5H5O+
91.0543	24	C7H7+
93.0335	4	C6H5O+
94.0413	4	C6H6O+
95.0491	163	C6H7O+
103.0542	7	C8H7+
105.0335	278	C7H5O+
111.0441	30	C6H7O2+
115.0542	999	C9H7+
117.0699	1	C9H9+
119.0128	23	C7H3O2+
121.0284	158	C7H5O2+
127.0542	37	C10H7+
129.0335	6	C9H5O+
139.0542	18	C11H7+
140.062	13	C11H8+
141.0698	907	C11H9+
143.049	2	C10H7O+
144.0567	1	C10H8O+
145.0648	34	C10H9O+
150.0464	26	C12H6+
151.0542	36	C12H7+
152.062	196	C12H8+
153.0698	22	C12H9+
155.0492	26	C11H7O+
168.057	84	C12H8O+
169.0647	199	C12H9O+
179.0493	14	C13H7O+
181.0646	5	C13H9O+
183.0441	6	C12H7O2+
197.0597	96	C13H9O2+
202.0777	19	C16H10+
203.086	1	C16H11+
207.0441	1	C14H7O2+
215.0855	13	C17H11+
218.0726	1	C16H10O+
225.0547	11	C14H9O3+
226.0777	56	C18H10+
227.0858	7	C18H11+
228.0936	3	C18H12+
231.0805	5	C17H11O+
237.0704	4	C19H9+
239.0852	4	C19H11+
243.08	3	C18H11O+
244.0886	2	C18H12O+
254.0729	1	C19H10O+
255.0803	22	C19H11O+
271.0752	6	C19H11O2+
273.0909	1	C19H13O2+
283.075	2	C20H11O2+
