Mass spectrum: 1,10-Phenanthroline; LC-ESI-QFT; MS2; CE: 90; R=17500; [M+H]+
Name: 1,10-Phenanthroline
Formula: C12H8N2
Exact mass: 180.0687
SMILES: C1=CC2=C(N=C1)C1=C(C=CC=N1)C=C2
InChI: InChI=1S/C12H8N2/c1-3-9-5-6-10-4-2-8-14-12(10)11(9)13-7-1/h1-8H
Instrument: Q Exactive Orbitrap (Thermo Scientific)
Instrument type: LC-ESI-QFT
Ms type: MS2
Ion mode: POSITIVE
Ionization: ESI
Fragmentation mode: HCD
Collision energy: 90
Resolution: 17500
Column name: Acquity BEH C18 1.7um, 2.1x150mm (Waters)
Retention time: 9.916 min
Base peak: 79.0212
Precursor m/z: 181.076
Precursor type: [M+H]+
Precursor intensity: 10599303.84375
m/z	relative intensity	assigned
65.0385	3	C5H5+
105.0446	1	C6H5N2+
127.0542	32	C10H7+
128.0494	15	C9H6N+
153.0573	7	C11H7N+
154.0651	323	C11H8N+
155.0603	42	C10H7N2+
179.0605	65	C12H7N2+
180.0683	12	C12H8N2+
181.0759	999	C12H9N2+
