Mass spectrum: Chlorthiamid; LC-ESI-QFT; MS2; CE: 90; R=17500; [M-H]-
Name: Chlorthiamid
Formula: C7H5Cl2NS
Exact mass: 204.9520
SMILES: NC(=S)C1=C(Cl)C=CC=C1Cl
InChI: InChI=1S/C7H5Cl2NS/c8-4-2-1-3-5(9)6(4)7(10)11/h1-3H,(H2,10,11)
Instrument: Q Exactive Orbitrap (Thermo Scientific)
Instrument type: LC-ESI-QFT
Ms type: MS2
Ion mode: NEGATIVE
Ionization: ESI
Fragmentation mode: HCD
Collision energy: 90
Resolution: 17500
Column name: Acquity BEH C18 1.7um, 2.1x150mm (Waters)
Retention time: 13.622 min
Base peak: 112.9857
Precursor m/z: 203.9447
Precursor type: [M-H]-
Precursor intensity: 361899.1132813
m/z	relative intensity	assigned
57.9757	999	CNS-
