Mass spectrum: 1,10-Phenanthroline; LC-ESI-QFT; MS2; CE: 45; R=17500; [M+H]+
Name: 1,10-Phenanthroline
Formula: C12H8N2
Exact mass: 180.0687
SMILES: C1=CC2=C(N=C1)C1=C(C=CC=N1)C=C2
InChI: InChI=1S/C12H8N2/c1-3-9-5-6-10-4-2-8-14-12(10)11(9)13-7-1/h1-8H
Instrument: Q Exactive Orbitrap (Thermo Scientific)
Instrument type: LC-ESI-QFT
Ms type: MS2
Ion mode: POSITIVE
Ionization: ESI
Fragmentation mode: HCD
Collision energy: 45
Resolution: 17500
Column name: Acquity BEH C18 1.7um, 2.1x150mm (Waters)
Retention time: 9.916 min
Base peak: 79.0212
Precursor m/z: 181.076
Precursor type: [M+H]+
Precursor intensity: 3950764.46875
m/z	relative intensity	assigned
181.0759	999	C12H9N2+
