Mass spectrum: 2-Isopropyl-6-methyl-4-pyrimidone; LC-ESI-QFT; MS2; CE: 45; R=17500; [M+H]+
Name: 2-Isopropyl-6-methyl-4-pyrimidone
Name: 6-methyl-2-propan-2-yl-1H-pyrimidin-4-one
Formula: C8H12N2O
Exact mass: 152.0950
SMILES: CC(C)C1=NC(=O)C=C(C)N1
InChI: InChI=1S/C8H12N2O/c1-5(2)8-9-6(3)4-7(11)10-8/h4-5H,1-3H3,(H,9,10,11)
Instrument: Q Exactive Orbitrap (Thermo Scientific)
Instrument type: LC-ESI-QFT
Ms type: MS2
Ion mode: POSITIVE
Ionization: ESI
Fragmentation mode: HCD
Collision energy: 45
Resolution: 17500
Column name: Acquity BEH C18 1.7um, 2.1x150mm (Waters)
Retention time: 10.057 min
Base peak: 79.0212
Precursor m/z: 153.1022
Precursor type: [M+H]+
Precursor intensity: 19933973.5625
m/z	relative intensity	assigned
70.0651	114	C4H8N+
84.0444	433	C4H6NO+
86.0036	1	C6N+
135.0915	1	C8H11N2+
136.0756	2	C8H10NO+
138.0788	3	C7H10N2O+
153.1022	999	C8H13N2O+
