Mass spectrum: 2-Hydroxybenzonitrile; LC-ESI-QFT; MS2; CE: 30; R=17500; [M-H]-
Name: 2-Hydroxybenzonitrile
Formula: C7H5NO
Exact mass: 119.0371
SMILES: OC1=C(C=CC=C1)C#N
InChI: InChI=1S/C7H5NO/c8-5-6-3-1-2-4-7(6)9/h1-4,9H
Instrument: Q Exactive Orbitrap (Thermo Scientific)
Instrument type: LC-ESI-QFT
Ms type: MS2
Ion mode: NEGATIVE
Ionization: ESI
Fragmentation mode: HCD
Collision energy: 30
Resolution: 17500
Column name: Acquity BEH C18 1.7um, 2.1x150mm (Waters)
Retention time: 13.172 min
Base peak: 118.0299
Precursor m/z: 118.0298
Precursor type: [M-H]-
Precursor intensity: 33557335.00977
m/z	relative intensity	assigned
64.0194	1	C4H2N-
90.035	83	C6H4N-
118.0298	999	C7H4NO-
