Mass spectrum: Chloramben; LC-ESI-QFT; MS2; CE: 15; R=17500; [M-H]-
Name: Chloramben
Name: 3-amino-2,5-dichlorobenzoic acid
Formula: C7H5Cl2NO2
Exact mass: 204.9697
SMILES: NC1=C(Cl)C(=CC(Cl)=C1)C(O)=O
InChI: InChI=1S/C7H5Cl2NO2/c8-3-1-4(7(11)12)6(9)5(10)2-3/h1-2H,10H2,(H,11,12)
Instrument: Q Exactive Orbitrap (Thermo Scientific)
Instrument type: LC-ESI-QFT
Ms type: MS2
Ion mode: NEGATIVE
Ionization: ESI
Fragmentation mode: HCD
Collision energy: 15
Resolution: 17500
Column name: Acquity BEH C18 1.7um, 2.1x150mm (Waters)
Retention time: 13.729 min
Base peak: 403.0945
Precursor m/z: 203.9625
Precursor type: [M-H]-
Precursor intensity: 1087666.953613
m/z	relative intensity	assigned
159.9727	999	C6H4Cl2N-
