Mass spectrum: Norgestrel; LC-ESI-QFT; MS2; CE: 30; R=17500; [M+H]+
Name: Norgestrel
Name: Levonorgestrel
Name: (8R,9S,10R,13S,14S,17R)-13-ethyl-17-ethynyl-17-hydroxy-1,2,6,7,8,9,10,11,12,14,15,16-dodecahydrocyclopenta[a]phenanthren-3-one
Formula: C21H28O2
Exact mass: 312.2089
SMILES: CC[C@]12CC[C@H]3[C@@H](CCC4=CC(=O)CC[C@H]34)[C@@H]1CC[C@@]2(O)C#C
InChI: InChI=1S/C21H28O2/c1-3-20-11-9-17-16-8-6-15(22)13-14(16)5-7-18(17)19(20)10-12-21(20,23)4-2/h2,13,16-19,23H,3,5-12H2,1H3/t16-,17+,18+,19-,20-,21-/m0/s1
Instrument: Q Exactive Orbitrap (Thermo Scientific)
Instrument type: LC-ESI-QFT
Ms type: MS2
Ion mode: POSITIVE
Ionization: ESI
Fragmentation mode: HCD
Collision energy: 30
Resolution: 17500
Column name: Acquity BEH C18 1.7um, 2.1x150mm (Waters)
Retention time: 17.947 min
Base peak: 79.0212
Precursor m/z: 313.2162
Precursor type: [M+H]+
Precursor intensity: 4517282.375
m/z	relative intensity	assigned
51.0227	2	C4H3+
55.0178	5	C3H3O+
55.0542	9	C4H7+
57.0335	17	C3H5O+
67.0542	35	C5H7+
69.0699	15	C5H9+
71.049	3	C4H7O+
79.0543	37	C6H7+
81.0335	5	C5H5O+
81.0699	68	C6H9+
83.0492	109	C5H7O+
85.0648	5	C5H9O+
91.0542	47	C7H7+
93.0699	67	C7H9+
95.0493	11	C6H7O+
95.0856	82	C7H11+
97.0648	19	C6H9O+
97.101	3	C7H13+
105.0699	59	C8H9+
107.0492	76	C7H7O+
107.0856	67	C8H11+
109.0649	279	C7H9O+
109.1012	45	C8H13+
111.0804	9	C7H11O+
115.0543	3	C9H7+
117.07	49	C9H9+
119.0856	80	C9H11+
121.0648	31	C8H9O+
121.1012	58	C9H13+
123.0805	96	C8H11O+
123.1168	31	C9H15+
125.0962	46	C8H13O+
129.0699	40	C10H9+
131.0856	116	C10H11+
133.0648	19	C9H9O+
133.1012	154	C10H13+
135.0805	86	C9H11O+
135.1169	44	C10H15+
137.0962	19	C9H13O+
137.1327	14	C10H17+
141.0702	14	C11H9+
143.0856	59	C11H11+
145.0645	6	C10H9O+
145.1013	111	C11H13+
147.0805	35	C10H11O+
147.1169	60	C11H15+
149.0962	92	C10H13O+
149.1324	23	C11H17+
151.1119	15	C10H15O+
155.0856	26	C12H11+
156.0937	2	C12H12+
157.0652	9	C11H9O+
157.1013	85	C12H13+
159.0805	31	C11H11O+
159.1169	129	C12H15+
161.0963	56	C11H13O+
161.1326	24	C12H17+
163.1118	63	C11H15O+
163.1486	5	C12H19+
167.0853	15	C13H11+
169.1013	43	C13H13+
170.1087	3	C13H14+
171.1169	87	C13H15+
173.0963	19	C12H13O+
173.1327	55	C13H17+
175.1118	54	C12H15O+
175.1483	25	C13H19+
177.1275	15	C12H17O+
179.0856	9	C14H11+
181.1014	37	C14H13+
183.117	80	C14H15+
185.0964	37	C13H13O+
185.1326	151	C14H17+
187.1118	34	C13H15O+
187.1483	73	C14H19+
189.1276	38	C13H17O+
191.1427	11	C13H19O+
193.1012	16	C15H13+
195.117	44	C15H15+
197.0963	8	C14H13O+
197.1326	53	C15H17+
198.1403	3	C15H18+
199.112	16	C14H15O+
199.1482	65	C15H19+
201.1275	34	C14H17O+
201.1638	10	C15H21+
203.1432	21	C14H19O+
205.1586	5	C14H21O+
206.1091	3	C16H14+
207.1169	28	C16H15+
208.1247	6	C16H16+
209.1325	29	C16H17+
211.112	13	C15H15O+
211.1484	24	C16H19+
213.1274	19	C15H17O+
213.1639	21	C16H21+
215.1432	15	C15H19O+
215.1796	7	C16H23+
217.1591	7	C15H21O+
219.117	3	C17H15+
220.1242	2	C17H16+
221.1325	43	C17H17+
222.1402	5	C17H18+
223.1482	25	C17H19+
225.128	24	C16H17O+
225.1638	49	C17H21+
227.1436	12	C16H19O+
227.1795	93	C17H23+
233.1326	3	C18H17+
234.1394	2	C18H18+
235.1482	45	C18H19+
236.1564	4	C18H20+
237.1639	83	C18H21+
239.1434	20	C17H19O+
239.1795	16	C18H23+
241.159	16	C17H21O+
243.1748	21	C17H23O+
245.1901	472	C17H25O+
248.1561	17	C19H20+
249.164	33	C19H21+
251.1795	22	C19H23+
253.1593	14	C18H21O+
253.1951	21	C19H25+
255.1741	12	C18H23O+
257.1894	4	C18H25O+
266.1669	23	C19H22O+
267.1743	30	C19H23O+
267.2104	12	C20H27+
277.1951	85	C21H25+
295.2058	189	C21H27O+
313.2164	999	C21H29O2+
