Mass spectrum: 2-Mercaptobenzothiazole; LC-ESI-QFT; MS2; CE: 45; R=17500; [M-H]-
Name: 2-Mercaptobenzothiazole
Name: 1,3-benzothiazole-2-thiol
Formula: C7H5NS2
Exact mass: 166.9863
SMILES: SC1=NC2=C(S1)C=CC=C2
InChI: InChI=1S/C7H5NS2/c9-7-8-5-3-1-2-4-6(5)10-7/h1-4H,(H,8,9)
Instrument: Q Exactive Orbitrap (Thermo Scientific)
Instrument type: LC-ESI-QFT
Ms type: MS2
Ion mode: NEGATIVE
Ionization: ESI
Fragmentation mode: HCD
Collision energy: 45
Resolution: 17500
Column name: Acquity BEH C18 1.7um, 2.1x150mm (Waters)
Retention time: 15.228 min
Base peak: 165.979
Precursor m/z: 165.9791
Precursor type: [M-H]-
Precursor intensity: 29177381.90723
m/z	relative intensity	assigned
57.9756	63	CNS-
63.9447	5	S2-
90.0349	1	C6H4N-
102.0349	41	C7H4N-
134.007	353	C7H4NS-
164.9713	2	C7H3NS2-
165.979	999	C7H4NS2-
