Mass spectrum: Norgestrel; LC-ESI-QFT; MS2; CE: 75; R=17500; [M+H]+
Name: Norgestrel
Name: Levonorgestrel
Name: (8R,9S,10R,13S,14S,17R)-13-ethyl-17-ethynyl-17-hydroxy-1,2,6,7,8,9,10,11,12,14,15,16-dodecahydrocyclopenta[a]phenanthren-3-one
Formula: C21H28O2
Exact mass: 312.2089
SMILES: CC[C@]12CC[C@H]3[C@@H](CCC4=CC(=O)CC[C@H]34)[C@@H]1CC[C@@]2(O)C#C
InChI: InChI=1S/C21H28O2/c1-3-20-11-9-17-16-8-6-15(22)13-14(16)5-7-18(17)19(20)10-12-21(20,23)4-2/h2,13,16-19,23H,3,5-12H2,1H3/t16-,17+,18+,19-,20-,21-/m0/s1
Instrument: Q Exactive Orbitrap (Thermo Scientific)
Instrument type: LC-ESI-QFT
Ms type: MS2
Ion mode: POSITIVE
Ionization: ESI
Fragmentation mode: HCD
Collision energy: 75
Resolution: 17500
Column name: Acquity BEH C18 1.7um, 2.1x150mm (Waters)
Retention time: 17.947 min
Base peak: 79.0212
Precursor m/z: 313.2162
Precursor type: [M+H]+
Precursor intensity: 4504616.5
m/z	relative intensity	assigned
51.0229	6	C4H3+
53.0023	29	C3HO+
53.0386	77	C4H5+
55.0179	70	C3H3O+
55.0543	179	C4H7+
57.0335	20	C3H5O+
57.07	11	C4H9+
65.0386	61	C5H5+
67.0542	352	C5H7+
69.0336	17	C4H5O+
69.0699	51	C5H9+
71.0492	6	C4H7O+
77.0386	15	C6H5+
79.0542	657	C6H7+
80.0621	4	C6H8+
81.0336	37	C5H5O+
81.0699	595	C6H9+
83.0492	474	C5H7O+
91.0543	999	C7H7+
93.07	349	C7H9+
94.0415	15	C6H6O+
95.0492	169	C6H7O+
95.0856	145	C7H11+
97.0648	25	C6H9O+
103.0543	77	C8H7+
104.062	12	C8H8+
105.0699	496	C8H9+
107.0492	232	C7H7O+
107.0856	134	C8H11+
109.0649	734	C7H9O+
111.0805	4	C7H11O+
115.0543	169	C9H7+
116.0622	73	C9H8+
117.0699	317	C9H9+
118.0778	11	C9H10+
119.0856	193	C9H11+
121.0649	34	C8H9O+
121.1013	24	C9H13+
123.0805	54	C8H11O+
123.1168	29	C9H15+
125.0963	4	C8H13O+
127.0542	5	C10H7+
128.0621	223	C10H8+
129.0699	293	C10H9+
130.0778	66	C10H10+
131.0856	233	C10H11+
132.0568	4	C9H8O+
133.0648	51	C9H9O+
133.1012	98	C10H13+
134.0731	7	C9H10O+
135.0805	137	C9H11O+
135.1168	20	C10H15+
137.0958	8	C9H13O+
141.0699	120	C11H9+
142.0778	119	C11H10+
143.0856	169	C11H11+
144.057	12	C10H8O+
144.0933	21	C11H12+
145.065	28	C10H9O+
145.1012	113	C11H13+
146.0726	7	C10H10O+
147.0805	33	C10H11O+
147.1168	21	C11H15+
148.0885	8	C10H12O+
149.0962	37	C10H13O+
152.0623	10	C12H8+
153.0701	50	C12H9+
154.0777	38	C12H10+
155.0856	108	C12H11+
156.0933	44	C12H12+
157.0651	11	C11H9O+
157.1013	76	C12H13+
158.1094	7	C12H14+
159.0802	21	C11H11O+
159.1171	28	C12H15+
160.088	7	C11H12O+
161.0961	50	C11H13O+
162.1042	10	C11H14O+
163.112	10	C11H15O+
165.07	52	C13H9+
166.0776	22	C13H10+
167.0858	48	C13H11+
168.0935	22	C13H12+
169.1014	45	C13H13+
170.1091	11	C13H14+
171.117	39	C13H15+
173.0963	8	C12H13O+
173.1327	5	C13H17+
175.1119	16	C12H15O+
175.1479	8	C13H19+
178.0775	24	C14H10+
179.0857	33	C14H11+
180.0934	19	C14H12+
181.1014	38	C14H13+
182.1092	7	C14H14+
183.1168	28	C14H15+
185.1325	19	C14H17+
187.1118	10	C13H15O+
187.1487	5	C14H19+
188.1195	10	C13H16O+
189.1272	6	C13H17O+
190.0778	5	C15H10+
191.086	19	C15H11+
192.0934	13	C15H12+
193.1014	15	C15H13+
194.1092	6	C15H14+
195.1171	13	C15H15+
197.1329	8	C15H17+
199.1125	5	C14H15O+
199.1481	6	C15H19+
201.1274	4	C14H17O+
203.0853	4	C16H11+
205.1011	14	C16H13+
206.1089	8	C16H14+
207.1168	15	C16H15+
209.132	5	C16H17+
219.117	7	C17H15+
220.1252	3	C17H16+
221.1336	6	C17H17+
233.1328	4	C18H17+
