Mass spectrum: 2,6-Di-tert-butyl-4-nitrophenol; LC-ESI-QFT; MS2; CE: 90; R=17500; [M-H]-
Name: 2,6-Di-tert-butyl-4-nitrophenol
Name: 2,6-ditert-butyl-4-nitrophenol
Formula: C14H21NO3
Exact mass: 251.1521
SMILES: CC(C)(C)C1=CC(=CC(=C1O)C(C)(C)C)[N+]([O-])=O
InChI: InChI=1S/C14H21NO3/c1-13(2,3)10-7-9(15(17)18)8-11(12(10)16)14(4,5)6/h7-8,16H,1-6H3
Instrument: Q Exactive Orbitrap (Thermo Scientific)
Instrument type: LC-ESI-QFT
Ms type: MS2
Ion mode: NEGATIVE
Ionization: ESI
Fragmentation mode: HCD
Collision energy: 90
Resolution: 17500
Column name: Acquity BEH C18 1.7um, 2.1x150mm (Waters)
Retention time: 19.600 min
Base peak: 250.1448
Precursor m/z: 250.1449
Precursor type: [M-H]-
Precursor intensity: 142922420.5234
m/z	relative intensity	assigned
147.0452	10	C9H7O2-
148.0531	307	C9H8O2-
149.0606	6	C9H9O2-
150.0563	15	C8H8NO2-
161.1341	3	C12H17-
163.0399	6	C9H7O3-
164.072	20	C9H10NO2-
164.0844	17	C10H12O2-
173.0969	6	C12H13O-
177.1283	15	C12H17O-
178.0509	13	C9H8NO3-
189.092	30	C12H13O2-
189.1286	11	C13H17O-
190.1	21	C12H14O2-
191.1083	15	C12H15O2-
204.1157	63	C13H16O2-
205.1234	93	C13H17O2-
218.0823	41	C12H12NO3-
220.098	158	C12H14NO3-
234.1136	999	C13H16NO3-
250.145	44	C14H20NO3-
