Mass spectrum: Norgestrel; LC-ESI-QFT; MS2; CE: 60; R=17500; [M+H]+
Name: Norgestrel
Name: Levonorgestrel
Name: (8R,9S,10R,13S,14S,17R)-13-ethyl-17-ethynyl-17-hydroxy-1,2,6,7,8,9,10,11,12,14,15,16-dodecahydrocyclopenta[a]phenanthren-3-one
Formula: C21H28O2
Exact mass: 312.2089
SMILES: CC[C@]12CC[C@H]3[C@@H](CCC4=CC(=O)CC[C@H]34)[C@@H]1CC[C@@]2(O)C#C
InChI: InChI=1S/C21H28O2/c1-3-20-11-9-17-16-8-6-15(22)13-14(16)5-7-18(17)19(20)10-12-21(20,23)4-2/h2,13,16-19,23H,3,5-12H2,1H3/t16-,17+,18+,19-,20-,21-/m0/s1
Instrument: Q Exactive Orbitrap (Thermo Scientific)
Instrument type: LC-ESI-QFT
Ms type: MS2
Ion mode: POSITIVE
Ionization: ESI
Fragmentation mode: HCD
Collision energy: 60
Resolution: 17500
Column name: Acquity BEH C18 1.7um, 2.1x150mm (Waters)
Retention time: 17.942 min
Base peak: 79.0211
Precursor m/z: 313.2162
Precursor type: [M+H]+
Precursor intensity: 8443021.375
m/z	relative intensity	assigned
53.0022	12	C3HO+
53.0386	35	C4H5+
55.0178	57	C3H3O+
55.0542	128	C4H7+
57.0334	19	C3H5O+
57.0699	17	C4H9+
65.0385	28	C5H5+
67.0542	303	C5H7+
69.0335	13	C4H5O+
69.0698	51	C5H9+
71.0492	8	C4H7O+
77.0385	8	C6H5+
79.0542	436	C6H7+
81.0334	37	C5H5O+
81.0699	462	C6H9+
83.0491	544	C5H7O+
91.0542	674	C7H7+
93.0699	413	C7H9+
95.0491	73	C6H7O+
95.0855	211	C7H11+
97.0648	34	C6H9O+
97.1011	6	C7H13+
103.0542	49	C8H7+
104.0622	7	C8H8+
105.0699	488	C8H9+
107.0491	245	C7H7O+
107.0855	212	C8H11+
109.0648	999	C7H9O+
109.1012	83	C8H13+
111.0804	8	C7H11O+
115.0542	85	C9H7+
116.062	50	C9H8+
117.0699	338	C9H9+
118.0775	5	C9H10+
119.0855	289	C9H11+
121.0648	53	C8H9O+
121.1012	75	C9H13+
123.0804	109	C8H11O+
123.1168	83	C9H15+
125.0961	16	C8H13O+
128.062	95	C10H8+
129.0698	273	C10H9+
130.0778	56	C10H10+
131.0855	357	C10H11+
132.057	5	C9H8O+
132.0937	6	C10H12+
133.0647	65	C9H9O+
133.1012	207	C10H13+
135.0804	288	C9H11O+
135.1167	63	C10H15+
137.096	12	C9H13O+
137.1324	17	C10H17+
141.0698	88	C11H9+
142.0776	89	C11H10+
143.0855	245	C11H11+
144.0572	6	C10H8O+
144.0934	30	C11H12+
145.065	21	C10H9O+
145.1012	217	C11H13+
146.0727	7	C10H10O+
147.0805	51	C10H11O+
147.1168	58	C11H15+
148.0882	8	C10H12O+
149.0961	98	C10H13O+
149.1323	11	C11H17+
152.0618	4	C12H8+
153.0699	27	C12H9+
154.0779	29	C12H10+
155.0855	113	C12H11+
156.0934	43	C12H12+
157.0649	10	C11H9O+
157.1012	168	C12H13+
158.1092	8	C12H14+
159.0806	34	C11H11O+
159.1168	92	C12H15+
160.1238	3	C12H16+
161.096	101	C11H13O+
161.1325	16	C12H17+
163.1117	48	C11H15O+
163.1482	5	C12H19+
165.0698	23	C13H9+
166.0774	18	C13H10+
167.0855	58	C13H11+
168.0935	26	C13H12+
169.1012	78	C13H13+
170.1087	21	C13H14+
171.1168	108	C13H15+
172.1247	8	C13H16+
173.0961	12	C12H13O+
173.1325	32	C13H17+
175.1117	52	C12H15O+
175.1479	37	C13H19+
178.0774	12	C14H10+
179.0855	32	C14H11+
180.0934	17	C14H12+
181.1011	50	C14H13+
182.1091	11	C14H14+
183.1168	61	C14H15+
184.1246	9	C14H16+
185.0961	13	C13H13O+
185.1325	69	C14H17+
187.1118	15	C13H15O+
187.1481	36	C14H19+
188.1197	22	C13H16O+
189.1274	22	C13H17O+
191.0855	12	C15H11+
192.0932	17	C15H12+
193.1011	41	C15H13+
194.1091	10	C15H14+
195.117	28	C15H15+
196.1247	11	C15H16+
197.096	11	C14H13O+
197.1323	27	C15H17+
198.1398	4	C15H18+
199.1479	21	C15H19+
201.1275	15	C14H17O+
201.1638	7	C15H21+
203.1432	9	C14H19O+
205.101	17	C16H13+
206.1089	14	C16H14+
207.1167	24	C16H15+
208.1241	7	C16H16+
209.1325	17	C16H17+
211.1112	6	C15H15O+
211.1482	5	C16H19+
213.1274	6	C15H17O+
219.1166	14	C17H15+
220.1248	12	C17H16+
221.1321	11	C17H17+
223.1479	6	C17H19+
225.1632	8	C17H21+
226.1352	4	C16H18O+
227.1419	4	C16H19O+
227.179	19	C17H23+
233.1321	6	C18H17+
235.1486	4	C18H19+
237.1636	9	C18H21+
238.1341	4	C17H18O+
245.1895	21	C17H25O+
249.1634	8	C19H21+
266.1668	4	C19H22O+
