Mass spectrum: Norgestrel; LC-ESI-QFT; MS2; CE: 15; R=17500; [M+H]+
Name: Norgestrel
Name: Levonorgestrel
Name: (8R,9S,10R,13S,14S,17R)-13-ethyl-17-ethynyl-17-hydroxy-1,2,6,7,8,9,10,11,12,14,15,16-dodecahydrocyclopenta[a]phenanthren-3-one
Formula: C21H28O2
Exact mass: 312.2089
SMILES: CC[C@]12CC[C@H]3[C@@H](CCC4=CC(=O)CC[C@H]34)[C@@H]1CC[C@@]2(O)C#C
InChI: InChI=1S/C21H28O2/c1-3-20-11-9-17-16-8-6-15(22)13-14(16)5-7-18(17)19(20)10-12-21(20,23)4-2/h2,13,16-19,23H,3,5-12H2,1H3/t16-,17+,18+,19-,20-,21-/m0/s1
Instrument: Q Exactive Orbitrap (Thermo Scientific)
Instrument type: LC-ESI-QFT
Ms type: MS2
Ion mode: POSITIVE
Ionization: ESI
Fragmentation mode: HCD
Collision energy: 15
Resolution: 17500
Column name: Acquity BEH C18 1.7um, 2.1x150mm (Waters)
Retention time: 17.942 min
Base peak: 79.0211
Precursor m/z: 313.2162
Precursor type: [M+H]+
Precursor intensity: 7247607.71875
m/z	relative intensity	assigned
83.049	1	C5H7O+
93.0698	1	C7H9+
95.0853	2	C7H11+
97.0648	1	C6H9O+
105.0699	1	C8H9+
107.049	1	C7H7O+
107.0854	1	C8H11+
109.0647	6	C7H9O+
109.1012	1	C8H13+
119.0853	2	C9H11+
121.0647	1	C8H9O+
121.101	1	C9H13+
123.0804	3	C8H11O+
123.1166	1	C9H15+
125.0959	2	C8H13O+
131.0854	2	C10H11+
133.1011	4	C10H13+
135.0802	2	C9H11O+
135.1167	1	C10H15+
143.0853	1	C11H11+
145.101	3	C11H13+
147.1164	2	C11H15+
149.0961	3	C10H13O+
157.1007	2	C12H13+
159.1169	6	C12H15+
161.0958	2	C11H13O+
161.1325	1	C12H17+
163.112	2	C11H15O+
169.1009	1	C13H13+
171.1169	2	C13H15+
173.0961	1	C12H13O+
173.1321	2	C13H17+
175.1121	3	C12H15O+
175.148	1	C13H19+
181.1014	1	C14H13+
183.1169	3	C14H15+
185.0959	1	C13H13O+
185.1324	4	C14H17+
187.1115	2	C13H15O+
187.1482	2	C14H19+
189.1271	2	C13H17O+
195.1164	1	C15H15+
197.1322	1	C15H17+
199.1116	1	C14H15O+
199.1478	2	C15H19+
201.1275	1	C14H17O+
203.1429	1	C14H19O+
207.1165	1	C16H15+
209.1325	1	C16H17+
211.1483	1	C16H19+
213.1277	1	C15H17O+
213.1631	1	C16H21+
221.1327	2	C17H17+
223.1477	1	C17H19+
225.1277	1	C16H17O+
225.1633	1	C17H21+
227.1429	1	C16H19O+
227.179	2	C17H23+
235.148	2	C18H19+
237.1638	5	C18H21+
239.1431	1	C17H19O+
239.1788	1	C18H23+
241.1582	2	C17H21O+
243.1741	1	C17H23O+
245.19	23	C17H25O+
248.1554	1	C19H20+
249.1634	2	C19H21+
253.1578	1	C18H21O+
253.195	1	C19H25+
255.1738	1	C18H23O+
267.1739	2	C19H23O+
267.21	1	C20H27+
277.1951	8	C21H25+
295.2057	31	C21H27O+
313.2161	999	C21H29O2+
