Mass spectrum: Norgestrel; LC-ESI-QFT; MS2; CE: 45; R=17500; [M+H]+
Name: Norgestrel
Name: Levonorgestrel
Name: (8R,9S,10R,13S,14S,17R)-13-ethyl-17-ethynyl-17-hydroxy-1,2,6,7,8,9,10,11,12,14,15,16-dodecahydrocyclopenta[a]phenanthren-3-one
Formula: C21H28O2
Exact mass: 312.2089
SMILES: CC[C@]12CC[C@H]3[C@@H](CCC4=CC(=O)CC[C@H]34)[C@@H]1CC[C@@]2(O)C#C
InChI: InChI=1S/C21H28O2/c1-3-20-11-9-17-16-8-6-15(22)13-14(16)5-7-18(17)19(20)10-12-21(20,23)4-2/h2,13,16-19,23H,3,5-12H2,1H3/t16-,17+,18+,19-,20-,21-/m0/s1
Instrument: Q Exactive Orbitrap (Thermo Scientific)
Instrument type: LC-ESI-QFT
Ms type: MS2
Ion mode: POSITIVE
Ionization: ESI
Fragmentation mode: HCD
Collision energy: 45
Resolution: 17500
Column name: Acquity BEH C18 1.7um, 2.1x150mm (Waters)
Retention time: 17.947 min
Base peak: 79.0212
Precursor m/z: 313.2162
Precursor type: [M+H]+
Precursor intensity: 4780210.625
m/z	relative intensity	assigned
51.0229	4	C4H3+
53.0385	10	C4H5+
55.0178	33	C3H3O+
55.0542	66	C4H7+
57.0335	25	C3H5O+
57.0698	15	C4H9+
65.0386	7	C5H5+
67.0542	172	C5H7+
69.0335	4	C4H5O+
69.0698	52	C5H9+
77.0386	9	C6H5+
79.0542	210	C6H7+
81.0335	31	C5H5O+
81.0699	263	C6H9+
83.0491	434	C5H7O+
85.0647	7	C5H9O+
91.0542	305	C7H7+
93.0699	262	C7H9+
95.0492	46	C6H7O+
95.0855	216	C7H11+
97.0648	47	C6H9O+
97.1012	9	C7H13+
103.0542	13	C8H7+
105.0699	310	C8H9+
107.0491	223	C7H7O+
107.0855	194	C8H11+
109.0648	999	C7H9O+
109.1011	118	C8H13+
111.0804	14	C7H11O+
115.0541	29	C9H7+
116.0619	9	C9H8+
117.0699	221	C9H9+
119.0856	305	C9H11+
121.0648	64	C8H9O+
121.1012	115	C9H13+
123.0804	153	C8H11O+
123.1168	110	C9H15+
125.096	44	C8H13O+
128.062	25	C10H8+
129.0698	190	C10H9+
130.078	18	C10H10+
131.0855	355	C10H11+
133.0648	49	C9H9O+
133.1012	331	C10H13+
135.0804	326	C9H11O+
135.1168	122	C10H15+
137.0962	31	C9H13O+
137.1325	35	C10H17+
141.0697	51	C11H9+
142.0779	39	C11H10+
143.0855	232	C11H11+
144.0934	26	C11H12+
145.1012	321	C11H13+
146.0731	4	C10H10O+
146.1086	7	C11H14+
147.0804	67	C10H11O+
147.1168	104	C11H15+
149.0961	171	C10H13O+
149.1324	36	C11H17+
151.1118	18	C10H15O+
153.0699	11	C12H9+
154.0778	10	C12H10+
155.0855	92	C12H11+
156.0932	19	C12H12+
157.0649	17	C11H9O+
157.1012	233	C12H13+
158.1088	11	C12H14+
159.0804	62	C11H11O+
159.1168	201	C12H15+
160.0882	5	C11H12O+
161.0961	143	C11H13O+
161.1324	39	C12H17+
163.1117	94	C11H15O+
163.148	9	C12H19+
165.0699	16	C13H9+
166.0779	6	C13H10+
167.0854	48	C13H11+
168.0935	22	C13H12+
169.1012	103	C13H13+
170.1091	16	C13H14+
171.1167	158	C13H15+
173.0962	22	C12H13O+
173.1326	86	C13H17+
175.1117	92	C12H15O+
175.148	65	C13H19+
177.1275	13	C12H17O+
178.0778	9	C14H10+
179.0854	25	C14H11+
180.0936	12	C14H12+
181.1011	67	C14H13+
182.1094	8	C14H14+
183.1169	115	C14H15+
185.0962	27	C13H13O+
185.1325	197	C14H17+
187.1114	32	C13H15O+
187.148	93	C14H19+
188.1197	14	C13H16O+
189.1273	53	C13H17O+
191.0857	5	C15H11+
191.1429	10	C13H19O+
192.0939	10	C15H12+
193.1012	37	C15H13+
194.1094	9	C15H14+
195.117	61	C15H15+
196.1248	13	C15H16+
197.0963	9	C14H13O+
197.1325	72	C15H17+
198.1403	6	C15H18+
199.1117	21	C14H15O+
199.1481	81	C15H19+
201.1277	41	C14H17O+
201.1637	22	C15H21+
203.1433	17	C14H19O+
205.1013	9	C16H13+
206.1092	14	C16H14+
207.1169	41	C16H15+
208.1248	17	C16H16+
209.1325	41	C16H17+
211.112	14	C15H15O+
211.1482	23	C16H19+
213.128	18	C15H17O+
213.1638	15	C16H21+
215.1431	8	C15H19O+
215.1799	5	C16H23+
219.1172	6	C17H15+
220.1248	12	C17H16+
221.1326	33	C17H17+
222.14	6	C17H18+
223.148	24	C17H19+
225.1278	14	C16H17O+
225.1637	49	C17H21+
227.1433	10	C16H19O+
227.1793	139	C17H23+
233.1327	12	C18H17+
234.1411	4	C18H18+
235.1482	33	C18H19+
236.1564	5	C18H20+
237.1639	47	C18H21+
239.1429	16	C17H19O+
239.1793	8	C18H23+
241.1592	7	C17H21O+
243.1744	9	C17H23O+
245.19	273	C17H25O+
248.1561	15	C19H20+
249.1642	18	C19H21+
251.1795	11	C19H23+
253.1582	4	C18H21O+
253.1957	9	C19H25+
255.1748	6	C18H23O+
266.1655	20	C19H22O+
267.1743	16	C19H23O+
277.1952	19	C21H25+
295.2054	35	C21H27O+
313.2162	52	C21H29O2+
