Mass spectrum: 4-Methylumbelliferone; LC-ESI-QFT; MS2; CE: 75; R=17500; [M-H]-
Name: 4-Methylumbelliferone
Name: 7-hydroxy-4-methylchromen-2-one
Formula: C10H8O3
Exact mass: 176.0473
SMILES: CC1=CC(=O)OC2=C1C=CC(O)=C2
InChI: InChI=1S/C10H8O3/c1-6-4-10(12)13-9-5-7(11)2-3-8(6)9/h2-5,11H,1H3
Instrument: Q Exactive Orbitrap (Thermo Scientific)
Instrument type: LC-ESI-QFT
Ms type: MS2
Ion mode: NEGATIVE
Ionization: ESI
Fragmentation mode: HCD
Collision energy: 75
Resolution: 17500
Column name: Acquity BEH C18 1.7um, 2.1x150mm (Waters)
Retention time: 14.046 min
Base peak: 175.04
Precursor m/z: 175.0401
Precursor type: [M-H]-
Precursor intensity: 37203474.98926
m/z	relative intensity	assigned
63.0241	2	C5H3-
65.0033	148	C4HO-
65.0397	18	C5H5-
67.0189	5	C4H3O-
77.0397	27	C6H5-
79.0553	4	C6H7-
81.0347	4	C5H5O-
89.0397	301	C7H5-
91.0189	42	C6H3O-
91.0553	22	C7H7-
93.0346	52	C6H5O-
95.0503	214	C6H7O-
102.0476	24	C8H6-
103.0553	51	C8H7-
104.0269	4	C7H4O-
105.0346	89	C7H5O-
107.0503	23	C7H7O-
108.0216	2	C6H4O2-
109.0295	24	C6H5O2-
117.0347	6	C8H5O-
119.0502	872	C8H7O-
121.0296	6	C7H5O2-
123.0452	383	C7H7O2-
130.0425	118	C9H6O-
131.0503	468	C9H7O-
132.0218	46	C8H4O2-
133.0295	999	C8H5O2-
135.0087	14	C7H3O3-
145.0296	5	C9H5O2-
146.0371	9	C9H6O2-
147.0452	556	C9H7O2-
174.0322	3	C10H6O3-
175.0401	779	C10H7O3-
