Mass spectrum: 2-Isopropyl-6-methyl-4-pyrimidone; LC-ESI-QFT; MS2; CE: 60; R=17500; [M+H]+
Name: 2-Isopropyl-6-methyl-4-pyrimidone
Name: 6-methyl-2-propan-2-yl-1H-pyrimidin-4-one
Formula: C8H12N2O
Exact mass: 152.0950
SMILES: CC(C)C1=NC(=O)C=C(C)N1
InChI: InChI=1S/C8H12N2O/c1-5(2)8-9-6(3)4-7(11)10-8/h4-5H,1-3H3,(H,9,10,11)
Instrument: Q Exactive Orbitrap (Thermo Scientific)
Instrument type: LC-ESI-QFT
Ms type: MS2
Ion mode: POSITIVE
Ionization: ESI
Fragmentation mode: HCD
Collision energy: 60
Resolution: 17500
Column name: Acquity BEH C18 1.7um, 2.1x150mm (Waters)
Retention time: 10.057 min
Base peak: 79.0212
Precursor m/z: 153.1022
Precursor type: [M+H]+
Precursor intensity: 17318005.8125
m/z	relative intensity	assigned
53.0023	5	C3HO+
56.0495	2	C3H6N+
67.0178	2	C4H3O+
67.0543	1	C5H7+
70.0651	360	C4H8N+
84.0444	999	C4H6NO+
86.0035	13	C6N+
88.0756	1	C4H10NO+
93.0448	3	C5H5N2+
108.0809	2	C7H10N+
112.0757	2	C6H10NO+
135.0916	1	C8H11N2+
136.0757	2	C8H10NO+
137.0711	2	C7H9N2O+
138.0788	7	C7H10N2O+
153.1022	595	C8H13N2O+
