Mass spectrum: 4-tert-Butylbenzoic acid; LC-ESI-QFT; MS2; CE: 15; R=17500; [M-H]-
Name: 4-tert-Butylbenzoic acid
Formula: C11H14O2
Exact mass: 178.0994
SMILES: CC(C)(C)C1=CC=C(C=C1)C(O)=O
InChI: InChI=1S/C11H14O2/c1-11(2,3)9-6-4-8(5-7-9)10(12)13/h4-7H,1-3H3,(H,12,13)
Instrument: Q Exactive Orbitrap (Thermo Scientific)
Instrument type: LC-ESI-QFT
Ms type: MS2
Ion mode: NEGATIVE
Ionization: ESI
Fragmentation mode: HCD
Collision energy: 15
Resolution: 17500
Column name: Acquity BEH C18 1.7um, 2.1x150mm (Waters)
Retention time: 17.227 min
Base peak: 193.087
Precursor m/z: 177.0921
Precursor type: [M-H]-
Precursor intensity: 1541277.22168
m/z	relative intensity	assigned
162.069	1	C10H10O2-
177.0921	999	C11H13O2-
