Mass spectrum: 2-Isopropyl-6-methyl-4-pyrimidone; LC-ESI-QFT; MS2; CE: 90; R=17500; [M+H]+
Name: 2-Isopropyl-6-methyl-4-pyrimidone
Name: 6-methyl-2-propan-2-yl-1H-pyrimidin-4-one
Formula: C8H12N2O
Exact mass: 152.0950
SMILES: CC(C)C1=NC(=O)C=C(C)N1
InChI: InChI=1S/C8H12N2O/c1-5(2)8-9-6(3)4-7(11)10-8/h4-5H,1-3H3,(H,9,10,11)
Instrument: Q Exactive Orbitrap (Thermo Scientific)
Instrument type: LC-ESI-QFT
Ms type: MS2
Ion mode: POSITIVE
Ionization: ESI
Fragmentation mode: HCD
Collision energy: 90
Resolution: 17500
Column name: Acquity BEH C18 1.7um, 2.1x150mm (Waters)
Retention time: 10.057 min
Base peak: 79.0212
Precursor m/z: 153.1022
Precursor type: [M+H]+
Precursor intensity: 24979821.21875
m/z	relative intensity	assigned
53.0022	38	C3HO+
53.9975	8	C2NO+
56.0495	12	C3H6N+
66.0338	3	C4H4N+
67.0179	23	C4H3O+
67.0541	2	C5H7+
70.0651	494	C4H8N+
84.0444	999	C4H6NO+
86.0036	49	C6N+
87.0917	1	C4H11N2+
88.0758	1	C4H10NO+
93.0448	3	C5H5N2+
108.0808	2	C7H10N+
110.0476	1	C5H6N2O+
137.071	30	C7H9N2O+
138.0788	7	C7H10N2O+
153.1023	60	C8H13N2O+
