Mass spectrum: 2-Hydroxybenzonitrile; LC-ESI-QFT; MS2; CE: 75; R=17500; [M+H]+
Name: 2-Hydroxybenzonitrile
Formula: C7H5NO
Exact mass: 119.0371
SMILES: OC1=C(C=CC=C1)C#N
InChI: InChI=1S/C7H5NO/c8-5-6-3-1-2-4-7(6)9/h1-4,9H
Instrument: Q Exactive Orbitrap (Thermo Scientific)
Instrument type: LC-ESI-QFT
Ms type: MS2
Ion mode: POSITIVE
Ionization: ESI
Fragmentation mode: HCD
Collision energy: 75
Resolution: 17500
Column name: Acquity BEH C18 1.7um, 2.1x150mm (Waters)
Retention time: 15.006 min
Base peak: 79.0211
Precursor m/z: 120.0444
Precursor type: [M+H]+
Precursor intensity: 2965581.75
m/z	relative intensity	assigned
53.0022	5	C3HO+
53.0386	2	C4H5+
54.0338	2	C3H4N+
55.0179	3	C3H3O+
56.0496	2	C3H6N+
65.0386	999	C5H5+
66.0338	1	C4H4N+
68.0495	42	C4H6N+
69.0334	3	C4H5O+
78.0337	4	C5H4N+
79.0179	5	C5H3O+
82.0288	1	C4H4NO+
90.0339	1	C6H4N+
92.0495	809	C6H6N+
95.0366	1	C5H5NO+
96.0444	5	C5H6NO+
108.0444	9	C6H6NO+
120.0444	362	C7H6NO+
