Mass spectrum: 4-Methylumbelliferone; LC-ESI-QFT; MS2; CE: 90; R=17500; [M-H]-
Name: 4-Methylumbelliferone
Name: 7-hydroxy-4-methylchromen-2-one
Formula: C10H8O3
Exact mass: 176.0473
SMILES: CC1=CC(=O)OC2=C1C=CC(O)=C2
InChI: InChI=1S/C10H8O3/c1-6-4-10(12)13-9-5-7(11)2-3-8(6)9/h2-5,11H,1H3
Instrument: Q Exactive Orbitrap (Thermo Scientific)
Instrument type: LC-ESI-QFT
Ms type: MS2
Ion mode: NEGATIVE
Ionization: ESI
Fragmentation mode: HCD
Collision energy: 90
Resolution: 17500
Column name: Acquity BEH C18 1.7um, 2.1x150mm (Waters)
Retention time: 14.046 min
Base peak: 175.04
Precursor m/z: 175.0401
Precursor type: [M-H]-
Precursor intensity: 44296199.86328
m/z	relative intensity	assigned
63.024	17	C5H3-
65.0033	273	C4HO-
65.0397	38	C5H5-
67.0189	7	C4H3O-
77.0397	52	C6H5-
79.0553	4	C6H7-
81.0346	3	C5H5O-
89.0397	431	C7H5-
91.019	78	C6H3O-
91.0554	40	C7H7-
93.0346	114	C6H5O-
95.0503	285	C6H7O-
102.0475	24	C8H6-
103.0554	37	C8H7-
104.0268	12	C7H4O-
105.0346	114	C7H5O-
107.0502	14	C7H7O-
108.0217	2	C6H4O2-
109.0295	19	C6H5O2-
117.0345	21	C8H5O-
119.0502	999	C8H7O-
121.0295	8	C7H5O2-
123.0452	285	C7H7O2-
130.0424	75	C9H6O-
131.0503	189	C9H7O-
132.0217	58	C8H4O2-
133.0295	533	C8H5O2-
135.0092	7	C7H3O3-
145.0294	8	C9H5O2-
146.0375	8	C9H6O2-
147.0452	279	C9H7O2-
175.0401	172	C10H7O3-
