Mass spectrum: 2-Hydroxybenzonitrile; LC-ESI-QFT; MS2; CE: 15; R=17500; [M+H]+
Name: 2-Hydroxybenzonitrile
Formula: C7H5NO
Exact mass: 119.0371
SMILES: OC1=C(C=CC=C1)C#N
InChI: InChI=1S/C7H5NO/c8-5-6-3-1-2-4-7(6)9/h1-4,9H
Instrument: Q Exactive Orbitrap (Thermo Scientific)
Instrument type: LC-ESI-QFT
Ms type: MS2
Ion mode: POSITIVE
Ionization: ESI
Fragmentation mode: HCD
Collision energy: 15
Resolution: 17500
Column name: Acquity BEH C18 1.7um, 2.1x150mm (Waters)
Retention time: 15.006 min
Base peak: 79.0211
Precursor m/z: 120.0444
Precursor type: [M+H]+
Precursor intensity: 4727973.375
m/z	relative intensity	assigned
53.0023	1	C3HO+
53.0386	1	C4H5+
54.0338	1	C3H4N+
55.0179	1	C3H3O+
65.0385	47	C5H5+
68.0494	30	C4H6N+
69.0335	2	C4H5O+
78.0337	4	C5H4N+
79.0178	5	C5H3O+
82.0287	1	C4H4NO+
92.0494	204	C6H6N+
96.0443	4	C5H6NO+
108.0443	6	C6H6NO+
120.0444	999	C7H6NO+
