Mass spectrum: 2,6-Di-tert-butyl-4-nitrophenol; LC-ESI-QFT; MS2; CE: 75; R=17500; [M-H]-
Name: 2,6-Di-tert-butyl-4-nitrophenol
Name: 2,6-ditert-butyl-4-nitrophenol
Formula: C14H21NO3
Exact mass: 251.1521
SMILES: CC(C)(C)C1=CC(=CC(=C1O)C(C)(C)C)[N+]([O-])=O
InChI: InChI=1S/C14H21NO3/c1-13(2,3)10-7-9(15(17)18)8-11(12(10)16)14(4,5)6/h7-8,16H,1-6H3
Instrument: Q Exactive Orbitrap (Thermo Scientific)
Instrument type: LC-ESI-QFT
Ms type: MS2
Ion mode: NEGATIVE
Ionization: ESI
Fragmentation mode: HCD
Collision energy: 75
Resolution: 17500
Column name: Acquity BEH C18 1.7um, 2.1x150mm (Waters)
Retention time: 19.600 min
Base peak: 250.1448
Precursor m/z: 250.1449
Precursor type: [M-H]-
Precursor intensity: 145630668.9785
m/z	relative intensity	assigned
147.0451	7	C9H7O2-
148.053	186	C9H8O2-
149.0611	4	C9H9O2-
150.056	4	C8H8NO2-
161.1335	3	C12H17-
163.04	6	C9H7O3-
164.0717	5	C9H10NO2-
164.0843	6	C10H12O2-
173.0975	3	C12H13O-
177.1283	17	C12H17O-
178.051	4	C9H8NO3-
189.0917	4	C12H13O2-
189.1284	15	C13H17O-
190.0999	8	C12H14O2-
191.1077	16	C12H15O2-
194.0821	3	C10H12NO3-
204.1154	19	C13H16O2-
205.1234	205	C13H17O2-
218.0825	6	C12H12NO3-
220.0979	168	C12H14NO3-
220.1468	52	C14H20O2-
232.1356	3	C14H18NO2-
234.1136	999	C13H16NO3-
235.1213	9	C13H17NO3-
250.1449	777	C14H20NO3-
