Mass spectrum: 2-Hydroxybenzonitrile; LC-ESI-QFT; MS2; CE: 75; R=17500; [M-H]-
Name: 2-Hydroxybenzonitrile
Formula: C7H5NO
Exact mass: 119.0371
SMILES: OC1=C(C=CC=C1)C#N
InChI: InChI=1S/C7H5NO/c8-5-6-3-1-2-4-7(6)9/h1-4,9H
Instrument: Q Exactive Orbitrap (Thermo Scientific)
Instrument type: LC-ESI-QFT
Ms type: MS2
Ion mode: NEGATIVE
Ionization: ESI
Fragmentation mode: HCD
Collision energy: 75
Resolution: 17500
Column name: Acquity BEH C18 1.7um, 2.1x150mm (Waters)
Retention time: 13.172 min
Base peak: 118.0299
Precursor m/z: 118.0298
Precursor type: [M-H]-
Precursor intensity: 29997255.42578
m/z	relative intensity	assigned
50.0035	7	C3N-
64.0193	37	C4H2N-
65.0033	1	C4HO-
65.9986	2	C3NO-
74.0036	1	C5N-
76.0193	4	C5H2N-
90.0349	594	C6H4N-
91.0189	2	C6H3O-
118.0299	999	C7H4NO-
