Mass spectrum: 6-hydroxynaphthalene-2-sulfonate; LC-ESI-QFT; MS2; CE: 30; R=17500; [M-H]-
Name: 6-hydroxynaphthalene-2-sulfonate
Name: 2-Naphthol-6-sulfonic acid
Name: 6-hydroxynaphthalene-2-sulfonic acid
Formula: C10H8O4S
Exact mass: 224.0143
SMILES: OC1=CC2=C(C=C1)C=C(C=C2)S(O)(=O)=O
InChI: InChI=1S/C10H8O4S/c11-9-3-1-8-6-10(15(12,13)14)4-2-7(8)5-9/h1-6,11H,(H,12,13,14)
Instrument: Q Exactive Orbitrap (Thermo Scientific)
Instrument type: LC-ESI-QFT
Ms type: MS2
Ion mode: NEGATIVE
Ionization: ESI
Fragmentation mode: HCD
Collision energy: 30
Resolution: 17500
Column name: Acquity BEH C18 1.7um, 2.1x150mm (Waters)
Retention time: 7.766 min
Base peak: 75.0088
Precursor m/z: 223.0071
Precursor type: [M-H]-
Precursor intensity: 2532058.456543
m/z	relative intensity	assigned
79.957	14	O3S-
143.0501	6	C10H7O-
158.0373	2	C10H6O2-
159.0453	38	C10H7O2-
223.007	999	C10H7O4S-
