Mass spectrum: 2,6-Di-tert-butyl-4-nitrophenol; LC-ESI-QFT; MS2; CE: 60; R=17500; [M-H]-
Name: 2,6-Di-tert-butyl-4-nitrophenol
Name: 2,6-ditert-butyl-4-nitrophenol
Formula: C14H21NO3
Exact mass: 251.1521
SMILES: CC(C)(C)C1=CC(=CC(=C1O)C(C)(C)C)[N+]([O-])=O
InChI: InChI=1S/C14H21NO3/c1-13(2,3)10-7-9(15(17)18)8-11(12(10)16)14(4,5)6/h7-8,16H,1-6H3
Instrument: Q Exactive Orbitrap (Thermo Scientific)
Instrument type: LC-ESI-QFT
Ms type: MS2
Ion mode: NEGATIVE
Ionization: ESI
Fragmentation mode: HCD
Collision energy: 60
Resolution: 17500
Column name: Acquity BEH C18 1.7um, 2.1x150mm (Waters)
Retention time: 19.600 min
Base peak: 250.1448
Precursor m/z: 250.1449
Precursor type: [M-H]-
Precursor intensity: 130538710.7734
m/z	relative intensity	assigned
148.053	9	C9H8O2-
189.1285	2	C13H17O-
191.1078	1	C12H15O2-
194.082	1	C10H12NO3-
205.1233	41	C13H17O2-
220.0981	16	C12H14NO3-
220.1469	28	C14H20O2-
234.1136	98	C13H16NO3-
235.1214	11	C13H17NO3-
250.1449	999	C14H20NO3-
