Mass spectrum: 2-Hydroxybenzonitrile; LC-ESI-QFT; MS2; CE: 90; R=17500; [M+H]+
Name: 2-Hydroxybenzonitrile
Formula: C7H5NO
Exact mass: 119.0371
SMILES: OC1=C(C=CC=C1)C#N
InChI: InChI=1S/C7H5NO/c8-5-6-3-1-2-4-7(6)9/h1-4,9H
Instrument: Q Exactive Orbitrap (Thermo Scientific)
Instrument type: LC-ESI-QFT
Ms type: MS2
Ion mode: POSITIVE
Ionization: ESI
Fragmentation mode: HCD
Collision energy: 90
Resolution: 17500
Column name: Acquity BEH C18 1.7um, 2.1x150mm (Waters)
Retention time: 15.006 min
Base peak: 79.0211
Precursor m/z: 120.0444
Precursor type: [M+H]+
Precursor intensity: 4185666.90625
m/z	relative intensity	assigned
53.0022	8	C3HO+
53.0386	1	C4H5+
56.0496	4	C3H6N+
65.0386	999	C5H5+
66.0338	3	C4H4N+
68.0495	12	C4H6N+
78.0339	2	C5H4N+
79.0179	2	C5H3O+
90.034	2	C6H4N+
92.0495	412	C6H6N+
96.0444	2	C5H6NO+
108.0445	3	C6H6NO+
120.0445	88	C7H6NO+
