Mass spectrum: 2-Hydroxybenzonitrile; LC-ESI-QFT; MS2; CE: 60; R=17500; [M+H]+
Name: 2-Hydroxybenzonitrile
Formula: C7H5NO
Exact mass: 119.0371
SMILES: OC1=C(C=CC=C1)C#N
InChI: InChI=1S/C7H5NO/c8-5-6-3-1-2-4-7(6)9/h1-4,9H
Instrument: Q Exactive Orbitrap (Thermo Scientific)
Instrument type: LC-ESI-QFT
Ms type: MS2
Ion mode: POSITIVE
Ionization: ESI
Fragmentation mode: HCD
Collision energy: 60
Resolution: 17500
Column name: Acquity BEH C18 1.7um, 2.1x150mm (Waters)
Retention time: 15.006 min
Base peak: 79.0211
Precursor m/z: 120.0444
Precursor type: [M+H]+
Precursor intensity: 4016625.3125
m/z	relative intensity	assigned
53.0022	2	C3HO+
53.0386	3	C4H5+
54.0339	2	C3H4N+
55.0179	5	C3H3O+
63.0228	1	C5H3+
65.0385	511	C5H5+
67.018	1	C4H3O+
68.0494	74	C4H6N+
69.0335	6	C4H5O+
78.0338	7	C5H4N+
79.0178	13	C5H3O+
82.0288	2	C4H4NO+
92.0494	913	C6H6N+
95.0365	2	C5H5NO+
96.0444	12	C5H6NO+
108.0443	18	C6H6NO+
120.0444	999	C7H6NO+
