Mass spectrum: 4-Methylumbelliferone; LC-ESI-QFT; MS2; CE: 60; R=17500; [M-H]-
Name: 4-Methylumbelliferone
Name: 7-hydroxy-4-methylchromen-2-one
Formula: C10H8O3
Exact mass: 176.0473
SMILES: CC1=CC(=O)OC2=C1C=CC(O)=C2
InChI: InChI=1S/C10H8O3/c1-6-4-10(12)13-9-5-7(11)2-3-8(6)9/h2-5,11H,1H3
Instrument: Q Exactive Orbitrap (Thermo Scientific)
Instrument type: LC-ESI-QFT
Ms type: MS2
Ion mode: NEGATIVE
Ionization: ESI
Fragmentation mode: HCD
Collision energy: 60
Resolution: 17500
Column name: Acquity BEH C18 1.7um, 2.1x150mm (Waters)
Retention time: 14.046 min
Base peak: 175.04
Precursor m/z: 175.0401
Precursor type: [M-H]-
Precursor intensity: 39487577.60156
m/z	relative intensity	assigned
65.0033	16	C4HO-
65.0397	1	C5H5-
67.0189	1	C4H3O-
77.0396	4	C6H5-
89.0397	52	C7H5-
91.0189	7	C6H3O-
91.0553	3	C7H7-
93.0345	4	C6H5O-
95.0503	30	C6H7O-
102.0476	5	C8H6-
103.0553	17	C8H7-
105.0346	15	C7H5O-
107.0502	11	C7H7O-
109.0294	12	C6H5O2-
119.0502	174	C8H7O-
121.0294	1	C7H5O2-
123.0452	95	C7H7O2-
130.0424	40	C9H6O-
131.0502	314	C9H7O-
132.0216	7	C8H4O2-
133.0295	453	C8H5O2-
135.0087	5	C7H3O3-
145.0293	1	C9H5O2-
146.0374	2	C9H6O2-
147.0452	275	C9H7O2-
160.0165	1	C9H4O3-
174.0322	1	C10H6O3-
175.04	999	C10H7O3-
