Mass spectrum: Norgestrel; LC-ESI-QFT; MS2; CE: 90; R=17500; [M+H]+
Name: Norgestrel
Name: Levonorgestrel
Name: (8R,9S,10R,13S,14S,17R)-13-ethyl-17-ethynyl-17-hydroxy-1,2,6,7,8,9,10,11,12,14,15,16-dodecahydrocyclopenta[a]phenanthren-3-one
Formula: C21H28O2
Exact mass: 312.2089
SMILES: CC[C@]12CC[C@H]3[C@@H](CCC4=CC(=O)CC[C@H]34)[C@@H]1CC[C@@]2(O)C#C
InChI: InChI=1S/C21H28O2/c1-3-20-11-9-17-16-8-6-15(22)13-14(16)5-7-18(17)19(20)10-12-21(20,23)4-2/h2,13,16-19,23H,3,5-12H2,1H3/t16-,17+,18+,19-,20-,21-/m0/s1
Instrument: Q Exactive Orbitrap (Thermo Scientific)
Instrument type: LC-ESI-QFT
Ms type: MS2
Ion mode: POSITIVE
Ionization: ESI
Fragmentation mode: HCD
Collision energy: 90
Resolution: 17500
Column name: Acquity BEH C18 1.7um, 2.1x150mm (Waters)
Retention time: 17.947 min
Base peak: 79.0212
Precursor m/z: 313.2162
Precursor type: [M+H]+
Precursor intensity: 4776230.8125
m/z	relative intensity	assigned
51.023	4	C4H3+
53.0022	33	C3HO+
53.0386	119	C4H5+
55.0179	69	C3H3O+
55.0543	189	C4H7+
57.0336	10	C3H5O+
57.0699	9	C4H9+
65.0386	104	C5H5+
67.0542	295	C5H7+
69.0335	18	C4H5O+
69.0699	28	C5H9+
77.0385	30	C6H5+
79.0542	696	C6H7+
80.0619	8	C6H8+
81.0336	37	C5H5O+
81.0699	452	C6H9+
83.0492	352	C5H7O+
91.0543	999	C7H7+
93.0699	211	C7H9+
94.0414	20	C6H6O+
95.0492	236	C6H7O+
95.0855	76	C7H11+
97.0648	12	C6H9O+
103.0543	102	C8H7+
104.0621	22	C8H8+
105.0699	392	C8H9+
107.0492	166	C7H7O+
107.0855	56	C8H11+
109.0648	352	C7H9O+
115.0543	244	C9H7+
116.0621	80	C9H8+
117.0699	218	C9H9+
118.0777	14	C9H10+
119.0856	95	C9H11+
121.0648	18	C8H9O+
121.1011	5	C9H13+
123.0806	17	C8H11O+
127.0543	8	C10H7+
128.0621	238	C10H8+
129.0699	220	C10H9+
130.0777	43	C10H10+
131.0856	116	C10H11+
132.0569	8	C9H8O+
132.0934	3	C10H12+
133.0647	30	C9H9O+
133.1013	37	C10H13+
134.0729	5	C9H10O+
135.0805	49	C9H11O+
135.1174	5	C10H15+
141.0699	120	C11H9+
142.0778	92	C11H10+
143.0856	83	C11H11+
144.0571	7	C10H8O+
144.0934	11	C11H12+
145.0649	32	C10H9O+
145.1011	30	C11H13+
146.0727	8	C10H10O+
146.1091	3	C11H14+
147.0806	16	C10H11O+
149.0962	11	C10H13O+
152.0623	20	C12H8+
153.0699	62	C12H9+
154.0778	32	C12H10+
155.0856	67	C12H11+
156.0938	21	C12H12+
157.1011	23	C12H13+
159.0801	12	C11H11O+
159.1168	8	C12H15+
161.096	16	C11H13O+
165.07	55	C13H9+
166.0779	17	C13H10+
167.0856	38	C13H11+
168.0933	14	C13H12+
169.1011	20	C13H13+
170.1088	3	C13H14+
171.1169	9	C13H15+
178.0777	30	C14H10+
179.0855	29	C14H11+
180.0937	6	C14H12+
181.101	12	C14H13+
183.1169	7	C14H15+
187.1121	5	C13H15O+
190.0771	5	C15H10+
191.0853	14	C15H11+
192.0929	9	C15H12+
193.1009	11	C15H13+
195.1167	4	C15H15+
201.1271	5	C14H17O+
203.0857	9	C16H11+
205.1007	7	C16H13+
207.1174	4	C16H15+
