Mass spectrum: 4-Methylumbelliferone; LC-ESI-QFT; MS2; CE: 30; R=17500; [M-H]-
Name: 4-Methylumbelliferone
Name: 7-hydroxy-4-methylchromen-2-one
Formula: C10H8O3
Exact mass: 176.0473
SMILES: CC1=CC(=O)OC2=C1C=CC(O)=C2
InChI: InChI=1S/C10H8O3/c1-6-4-10(12)13-9-5-7(11)2-3-8(6)9/h2-5,11H,1H3
Instrument: Q Exactive Orbitrap (Thermo Scientific)
Instrument type: LC-ESI-QFT
Ms type: MS2
Ion mode: NEGATIVE
Ionization: ESI
Fragmentation mode: HCD
Collision energy: 30
Resolution: 17500
Column name: Acquity BEH C18 1.7um, 2.1x150mm (Waters)
Retention time: 14.046 min
Base peak: 175.04
Precursor m/z: 175.0401
Precursor type: [M-H]-
Precursor intensity: 44183920.0376
m/z	relative intensity	assigned
119.0502	1	C8H7O-
131.0503	17	C9H7O-
133.0295	10	C8H5O2-
147.0451	7	C9H7O2-
175.04	999	C10H7O3-
