Mass spectrum: Flufenamic acid; LC-ESI-QFT; MS2; CE: 30; R=17500; [M+H]+
Name: Flufenamic acid
Name: 2-[3-(trifluoromethyl)anilino]benzoic acid
Formula: C14H10F3NO2
Exact mass: 281.0664
SMILES: OC(=O)C1=C(NC2=CC(=CC=C2)C(F)(F)F)C=CC=C1
InChI: InChI=1S/C14H10F3NO2/c15-14(16,17)9-4-3-5-10(8-9)18-12-7-2-1-6-11(12)13(19)20/h1-8,18H,(H,19,20)
Instrument: Q Exactive Orbitrap (Thermo Scientific)
Instrument type: LC-ESI-QFT
Ms type: MS2
Ion mode: POSITIVE
Ionization: ESI
Fragmentation mode: HCD
Collision energy: 30
Resolution: 17500
Column name: Acquity BEH C18 1.7um, 2.1x150mm (Waters)
Retention time: 17.478 min
Base peak: 79.0211
Precursor m/z: 282.0736
Precursor type: [M+H]+
Precursor intensity: 1253454.75
m/z	relative intensity	assigned
65.0387	3	C5H5+
91.0544	1	C7H7+
93.0337	1	C6H5O+
111.044	9	C6H7O2+
130.0289	6	C8H4NO+
173.0209	42	C8H4F3O+
214.066	2	C13H9FNO+
222.0561	1	C14H8NO2+
240.0656	2	C12H9F3NO+
242.0612	748	C14H9FNO2+
262.0674	999	C14H10F2NO2+
282.0736	53	C14H11F3NO2+
