Mass spectrum: Dibenzylamine; LC-ESI-QFT; MS2; CE: 45; R=17500; [M-H]-
Name: Dibenzylamine
Name: N-benzyl-1-phenylmethanamine
Formula: C14H15N
Exact mass: 197.1204
SMILES: C(NCC1=CC=CC=C1)C1=CC=CC=C1
InChI: InChI=1S/C14H15N/c1-3-7-13(8-4-1)11-15-12-14-9-5-2-6-10-14/h1-10,15H,11-12H2
Instrument: Q Exactive Orbitrap (Thermo Scientific)
Instrument type: LC-ESI-QFT
Ms type: MS2
Ion mode: NEGATIVE
Ionization: ESI
Fragmentation mode: HCD
Collision energy: 45
Resolution: 17500
Column name: Acquity BEH C18 1.7um, 2.1x150mm (Waters)
Retention time: 19.451 min
Base peak: 240.1031
Precursor m/z: 196.1132
Precursor type: [M-H]-
Precursor intensity: 1629441.962891
m/z	relative intensity	assigned
92.0506	4	C6H6N-
118.0662	4	C8H8N-
179.0866	36	C14H11-
180.0819	96	C13H10N-
192.0819	103	C14H10N-
194.0975	68	C14H12N-
196.1131	999	C14H14N-
