Mass spectrum: Flufenamic acid; LC-ESI-QFT; MS2; CE: 45; R=17500; [M-H]-
Name: Flufenamic acid
Name: 2-[3-(trifluoromethyl)anilino]benzoic acid
Formula: C14H10F3NO2
Exact mass: 281.0664
SMILES: OC(=O)C1=C(NC2=CC(=CC=C2)C(F)(F)F)C=CC=C1
InChI: InChI=1S/C14H10F3NO2/c15-14(16,17)9-4-3-5-10(8-9)18-12-7-2-1-6-11(12)13(19)20/h1-8,18H,(H,19,20)
Instrument: Q Exactive Orbitrap (Thermo Scientific)
Instrument type: LC-ESI-QFT
Ms type: MS2
Ion mode: NEGATIVE
Ionization: ESI
Fragmentation mode: HCD
Collision energy: 45
Resolution: 17500
Column name: Acquity BEH C18 1.7um, 2.1x150mm (Waters)
Retention time: 19.257 min
Base peak: 280.059
Precursor m/z: 280.0591
Precursor type: [M-H]-
Precursor intensity: 79159144.77734
m/z	relative intensity	assigned
62.9888	12	CFO2-
68.9957	9	CF3-
155.0376	1	C10H5NO-
160.0376	3	C7H5F3N-
166.0661	15	C12H8N-
171.0489	1	C11H6FN-
176.0505	195	C13H6N-
179.0377	10	C12H5NO-
181.0533	19	C12H7NO-
183.0329	1	C11H5NO2-
183.0489	1	C12H6FN-
196.0567	61	C13H7FN-
199.0438	24	C12H6FNO-
200.0517	7	C12H7FNO-
207.0324	15	C13H5NO2-
215.0551	17	C13H7F2N-
216.0629	95	C13H8F2N-
217.0539	1	C12H8FNO2-
227.0388	51	C13H6FNO2-
234.0536	132	C13H7F3N-
236.0691	999	C13H9F3N-
248.0526	8	C13H8F2NO2-
280.0588	1	C14H9F3NO2-
