Mass spectrum: Flufenamic acid; LC-ESI-QFT; MS2; CE: 15; R=17500; [M-H]-
Name: Flufenamic acid
Name: 2-[3-(trifluoromethyl)anilino]benzoic acid
Formula: C14H10F3NO2
Exact mass: 281.0664
SMILES: OC(=O)C1=C(NC2=CC(=CC=C2)C(F)(F)F)C=CC=C1
InChI: InChI=1S/C14H10F3NO2/c15-14(16,17)9-4-3-5-10(8-9)18-12-7-2-1-6-11(12)13(19)20/h1-8,18H,(H,19,20)
Instrument: Q Exactive Orbitrap (Thermo Scientific)
Instrument type: LC-ESI-QFT
Ms type: MS2
Ion mode: NEGATIVE
Ionization: ESI
Fragmentation mode: HCD
Collision energy: 15
Resolution: 17500
Column name: Acquity BEH C18 1.7um, 2.1x150mm (Waters)
Retention time: 19.257 min
Base peak: 280.059
Precursor m/z: 280.0591
Precursor type: [M-H]-
Precursor intensity: 76639581.80078
m/z	relative intensity	assigned
196.0569	1	C13H7FN-
216.063	38	C13H8F2N-
234.0534	6	C13H7F3N-
236.0693	883	C13H9F3N-
248.0527	8	C13H8F2NO2-
280.0591	999	C14H9F3NO2-
