Mass spectrum: Flufenamic acid; LC-ESI-QFT; MS2; CE: 60; R=17500; [M-H]-
Name: Flufenamic acid
Name: 2-[3-(trifluoromethyl)anilino]benzoic acid
Formula: C14H10F3NO2
Exact mass: 281.0664
SMILES: OC(=O)C1=C(NC2=CC(=CC=C2)C(F)(F)F)C=CC=C1
InChI: InChI=1S/C14H10F3NO2/c15-14(16,17)9-4-3-5-10(8-9)18-12-7-2-1-6-11(12)13(19)20/h1-8,18H,(H,19,20)
Instrument: Q Exactive Orbitrap (Thermo Scientific)
Instrument type: LC-ESI-QFT
Ms type: MS2
Ion mode: NEGATIVE
Ionization: ESI
Fragmentation mode: HCD
Collision energy: 60
Resolution: 17500
Column name: Acquity BEH C18 1.7um, 2.1x150mm (Waters)
Retention time: 19.257 min
Base peak: 280.059
Precursor m/z: 280.0591
Precursor type: [M-H]-
Precursor intensity: 65437591.48828
m/z	relative intensity	assigned
62.9888	42	CFO2-
68.9958	27	CF3-
73.0085	3	C6H-
92.0505	11	C6H6N-
133.0273	2	C6H4F3-
139.0428	2	C10H5N-
155.0378	3	C10H5NO-
160.038	71	C7H5F3N-
166.0662	79	C12H8N-
167.038	1	C11H5NO-
168.0456	3	C11H6NO-
170.0407	1	C11H5FN-
171.0491	4	C11H6FN-
175.0425	1	C13H5N-
176.0506	999	C13H6N-
179.0377	44	C12H5NO-
180.0458	1	C12H6NO-
181.0534	83	C12H7NO-
183.0329	6	C11H5NO2-
183.049	4	C12H6FN-
186.0359	1	C11H5FNO-
194.041	30	C13H5FN-
194.0612	8	C13H8NO-
196.0568	121	C13H7FN-
199.0439	102	C12H6FNO-
200.0517	29	C12H7FNO-
207.0326	66	C13H5NO2-
214.0475	14	C13H6F2N-
214.0666	5	C13H9FNO-
215.0553	69	C13H7F2N-
216.063	106	C13H8F2N-
217.0543	4	C12H8FNO2-
227.0389	209	C13H6FNO2-
234.0536	567	C13H7F3N-
236.0692	603	C13H9F3N-
246.0379	1	C13H6F2NO2-
248.0526	6	C13H8F2NO2-
