Mass spectrum: Flufenamic acid; LC-ESI-QFT; MS2; CE: 30; R=17500; [M-H]-
Name: Flufenamic acid
Name: 2-[3-(trifluoromethyl)anilino]benzoic acid
Formula: C14H10F3NO2
Exact mass: 281.0664
SMILES: OC(=O)C1=C(NC2=CC(=CC=C2)C(F)(F)F)C=CC=C1
InChI: InChI=1S/C14H10F3NO2/c15-14(16,17)9-4-3-5-10(8-9)18-12-7-2-1-6-11(12)13(19)20/h1-8,18H,(H,19,20)
Instrument: Q Exactive Orbitrap (Thermo Scientific)
Instrument type: LC-ESI-QFT
Ms type: MS2
Ion mode: NEGATIVE
Ionization: ESI
Fragmentation mode: HCD
Collision energy: 30
Resolution: 17500
Column name: Acquity BEH C18 1.7um, 2.1x150mm (Waters)
Retention time: 19.257 min
Base peak: 280.059
Precursor m/z: 280.0591
Precursor type: [M-H]-
Precursor intensity: 69705657.59766
m/z	relative intensity	assigned
176.0506	10	C13H6N-
179.0376	1	C12H5NO-
196.0569	10	C13H7FN-
199.0438	2	C12H6FNO-
207.0323	1	C13H5NO2-
215.0548	1	C13H7F2N-
216.063	51	C13H8F2N-
227.0388	3	C13H6FNO2-
234.0539	15	C13H7F3N-
236.0692	999	C13H9F3N-
248.0529	8	C13H8F2NO2-
280.0591	82	C14H9F3NO2-
