Mass spectrum: 2,4-D-methyl; LC-ESI-QFT; MS2; CE: 45; R=17500; [M-H]-
Name: 2,4-D-methyl
Name: Methyl (2,4-dichlorophenoxy)acetate
Name: methyl 2-(2,4-dichlorophenoxy)acetate
Formula: C9H8Cl2O3
Exact mass: 233.9850
SMILES: COC(=O)COC1=C(Cl)C=C(Cl)C=C1
InChI: InChI=1S/C9H8Cl2O3/c1-13-9(12)5-14-8-3-2-6(10)4-7(8)11/h2-4H,5H2,1H3
Instrument: Q Exactive Orbitrap (Thermo Scientific)
Instrument type: LC-ESI-QFT
Ms type: MS2
Ion mode: NEGATIVE
Ionization: ESI
Fragmentation mode: HCD
Collision energy: 45
Resolution: 17500
Column name: Acquity BEH C18 1.7um, 2.1x150mm (Waters)
Retention time: 17.343 min
Base peak: 329.1063
Precursor m/z: 232.9778
Precursor type: [M-H]-
Precursor intensity: 4108078.712891
m/z	relative intensity	assigned
99.0008	2	C5H4Cl-
124.9799	41	C6H2ClO-
160.9566	999	C6H3Cl2O-
164.9505	24	C5H3Cl2O2-
181.9777	7	C8H3ClO3-
