Mass spectrum: Dibenzylamine; LC-ESI-QFT; MS2; CE: 75; R=17500; [M-H]-
Name: Dibenzylamine
Name: N-benzyl-1-phenylmethanamine
Formula: C14H15N
Exact mass: 197.1204
SMILES: C(NCC1=CC=CC=C1)C1=CC=CC=C1
InChI: InChI=1S/C14H15N/c1-3-7-13(8-4-1)11-15-12-14-9-5-2-6-10-14/h1-10,15H,11-12H2
Instrument: Q Exactive Orbitrap (Thermo Scientific)
Instrument type: LC-ESI-QFT
Ms type: MS2
Ion mode: NEGATIVE
Ionization: ESI
Fragmentation mode: HCD
Collision energy: 75
Resolution: 17500
Column name: Acquity BEH C18 1.7um, 2.1x150mm (Waters)
Retention time: 19.451 min
Base peak: 240.1031
Precursor m/z: 196.1132
Precursor type: [M-H]-
Precursor intensity: 1547212.324219
m/z	relative intensity	assigned
92.0506	586	C6H6N-
116.0505	31	C8H6N-
118.0666	25	C8H8N-
120.0819	145	C8H10N-
144.0817	63	C10H10N-
179.0743	156	C13H9N-
179.0867	310	C14H11-
180.082	999	C13H10N-
192.082	843	C14H10N-
193.0896	27	C14H11N-
194.0976	650	C14H12N-
196.1132	780	C14H14N-
