Mass spectrum: alpha-(2,5-Dichlorophenoxy)propionic acid; LC-ESI-QFT; MS2; CE: 30; R=17500; [M-H]-
Name: alpha-(2,5-Dichlorophenoxy)propionic acid
Name: 2-(2,5-dichlorophenoxy)propanoic acid
Formula: C9H8Cl2O3
Exact mass: 233.9850
SMILES: CC(OC1=C(Cl)C=CC(Cl)=C1)C(O)=O
InChI: InChI=1S/C9H8Cl2O3/c1-5(9(12)13)14-8-4-6(10)2-3-7(8)11/h2-5H,1H3,(H,12,13)
Instrument: Q Exactive Orbitrap (Thermo Scientific)
Instrument type: LC-ESI-QFT
Ms type: MS2
Ion mode: NEGATIVE
Ionization: ESI
Fragmentation mode: HCD
Collision energy: 30
Resolution: 17500
Column name: Acquity BEH C18 1.7um, 2.1x150mm (Waters)
Retention time: 17.343 min
Base peak: 329.1063
Precursor m/z: 232.9778
Precursor type: [M-H]-
Precursor intensity: 4249571.207031
m/z	relative intensity	assigned
124.9797	2	C6H2ClO-
160.9567	999	C6H3Cl2O-
164.9507	28	C5H3Cl2O2-
181.9777	4	C8H3ClO3-
197.0014	4	C9H6ClO3-
