Mass spectrum: Flufenamic acid; LC-ESI-QFT; MS2; CE: 75; R=17500; [M-H]-
Name: Flufenamic acid
Name: 2-[3-(trifluoromethyl)anilino]benzoic acid
Formula: C14H10F3NO2
Exact mass: 281.0664
SMILES: OC(=O)C1=C(NC2=CC(=CC=C2)C(F)(F)F)C=CC=C1
InChI: InChI=1S/C14H10F3NO2/c15-14(16,17)9-4-3-5-10(8-9)18-12-7-2-1-6-11(12)13(19)20/h1-8,18H,(H,19,20)
Instrument: Q Exactive Orbitrap (Thermo Scientific)
Instrument type: LC-ESI-QFT
Ms type: MS2
Ion mode: NEGATIVE
Ionization: ESI
Fragmentation mode: HCD
Collision energy: 75
Resolution: 17500
Column name: Acquity BEH C18 1.7um, 2.1x150mm (Waters)
Retention time: 19.257 min
Base peak: 280.059
Precursor m/z: 280.0591
Precursor type: [M-H]-
Precursor intensity: 75122466.39063
m/z	relative intensity	assigned
62.9888	25	CFO2-
65.0397	1	C5H5-
68.9958	33	CF3-
73.0084	21	C6H-
74.0036	2	C5N-
90.035	2	C6H4N-
92.0506	60	C6H6N-
100.0193	2	C7H2N-
101.0398	1	C8H5-
102.0349	2	C7H4N-
116.0507	2	C8H6N-
119.0178	1	C7H2FN-
120.0254	13	C7H3FN-
126.0348	1	C9H4N-
133.0272	3	C6H4F3-
139.0426	1	C10H5N-
140.0316	3	C7H4F2N-
140.0507	3	C10H6N-
150.0347	1	C11H4N-
152.0508	2	C11H6N-
155.0377	3	C10H5NO-
160.038	212	C7H5F3N-
166.0662	86	C12H8N-
167.0377	1	C11H5NO-
168.0453	4	C11H6NO-
170.041	4	C11H5FN-
171.0489	3	C11H6FN-
174.035	19	C13H4N-
175.0429	1	C13H5N-
176.0506	999	C13H6N-
179.0376	33	C12H5NO-
181.0533	46	C12H7NO-
183.0326	5	C11H5NO2-
183.049	3	C12H6FN-
186.0364	1	C11H5FNO-
190.0476	4	C11H6F2N-
194.0411	176	C13H5FN-
195.0489	1	C13H6FN-
196.0568	43	C13H7FN-
198.0361	1	C12H5FNO-
199.0439	71	C12H6FNO-
200.0518	17	C12H7FNO-
207.0326	45	C13H5NO2-
210.0197	1	C10H3F3NO-
212.0517	2	C13H7FNO-
214.0475	37	C13H6F2N-
214.0663	1	C13H9FNO-
215.0552	42	C13H7F2N-
216.063	23	C13H8F2N-
217.0542	2	C12H8FNO2-
226.031	1	C13H5FNO2-
227.0389	144	C13H6FNO2-
234.0536	429	C13H7F3N-
236.0693	62	C13H9F3N-
246.0368	1	C13H6F2NO2-
248.054	1	C13H8F2NO2-
