Mass spectrum: Benzoic acid; LC-ESI-QFT; MS2; CE: 60; R=17500; [M-H]-
Name: Benzoic acid
Formula: C7H6O2
Exact mass: 122.0368
SMILES: OC(=O)C1=CC=CC=C1
InChI: InChI=1S/C7H6O2/c8-7(9)6-4-2-1-3-5-6/h1-5H,(H,8,9)
Instrument: Q Exactive Orbitrap (Thermo Scientific)
Instrument type: LC-ESI-QFT
Ms type: MS2
Ion mode: NEGATIVE
Ionization: ESI
Fragmentation mode: HCD
Collision energy: 60
Resolution: 17500
Column name: Acquity BEH C18 1.7um, 2.1x150mm (Waters)
Retention time: 11.694 min
Base peak: 271.0837
Precursor m/z: 121.0295
Precursor type: [M-H]-
Precursor intensity: 787929.5036621
m/z	relative intensity	assigned
93.0347	129	C6H5O-
121.0295	999	C7H5O2-
