Mass spectrum: 4-Butyloxyaniline; LC-ESI-QFT; MS2; CE: 30; R=17500; [M+H]+
Name: 4-Butyloxyaniline
Name: 4-butoxyaniline
Formula: C10H15NO
Exact mass: 165.1154
SMILES: CCCCOC1=CC=C(N)C=C1
InChI: InChI=1S/C10H15NO/c1-2-3-8-12-10-6-4-9(11)5-7-10/h4-7H,2-3,8,11H2,1H3
Instrument: Q Exactive Orbitrap (Thermo Scientific)
Instrument type: LC-ESI-QFT
Ms type: MS2
Ion mode: POSITIVE
Ionization: ESI
Fragmentation mode: HCD
Collision energy: 30
Resolution: 17500
Column name: Acquity BEH C18 1.7um, 2.1x150mm (Waters)
Retention time: 13.671 min
Base peak: 79.0212
Precursor m/z: 166.1226
Precursor type: [M+H]+
Precursor intensity: 7269500.875
m/z	relative intensity	assigned
57.0698	2	C4H9+
65.0385	2	C5H5+
82.0651	3	C5H8N+
92.0495	6	C6H6N+
93.0335	3	C6H5O+
109.0517	2	C6H7NO+
110.0601	208	C6H8NO+
166.1227	999	C10H16NO+
