Mass spectrum: 1,2-Benzisothiazolin-3-one; LC-ESI-QFT; MS2; CE: 60; R=17500; [M-H]-
Name: 1,2-Benzisothiazolin-3-one
Name: 1,2-Benzisothiazol-3(2H)-one
Name: 1,2-benzothiazol-3-one
Formula: C7H5NOS
Exact mass: 151.0092
SMILES: O=C1NSC2=C1C=CC=C2
InChI: InChI=1S/C7H5NOS/c9-7-5-3-1-2-4-6(5)10-8-7/h1-4H,(H,8,9)
Instrument: Q Exactive Orbitrap (Thermo Scientific)
Instrument type: LC-ESI-QFT
Ms type: MS2
Ion mode: NEGATIVE
Ionization: ESI
Fragmentation mode: HCD
Collision energy: 60
Resolution: 17500
Column name: Acquity BEH C18 1.7um, 2.1x150mm (Waters)
Retention time: 12.815 min
Base peak: 112.9857
Precursor m/z: 150.0019
Precursor type: [M-H]-
Precursor intensity: 311365.4256592
m/z	relative intensity	assigned
150.0019	999	C7H4NOS-
