Mass spectrum: Flufenamic acid; LC-ESI-QFT; MS2; CE: 60; R=17500; [M+H]+
Name: Flufenamic acid
Name: 2-[3-(trifluoromethyl)anilino]benzoic acid
Formula: C14H10F3NO2
Exact mass: 281.0664
SMILES: OC(=O)C1=C(NC2=CC(=CC=C2)C(F)(F)F)C=CC=C1
InChI: InChI=1S/C14H10F3NO2/c15-14(16,17)9-4-3-5-10(8-9)18-12-7-2-1-6-11(12)13(19)20/h1-8,18H,(H,19,20)
Instrument: Q Exactive Orbitrap (Thermo Scientific)
Instrument type: LC-ESI-QFT
Ms type: MS2
Ion mode: POSITIVE
Ionization: ESI
Fragmentation mode: HCD
Collision energy: 60
Resolution: 17500
Column name: Acquity BEH C18 1.7um, 2.1x150mm (Waters)
Retention time: 17.478 min
Base peak: 79.0211
Precursor m/z: 282.0736
Precursor type: [M+H]+
Precursor intensity: 1061310.375
m/z	relative intensity	assigned
53.0022	11	C3HO+
53.0386	3	C4H5+
55.0179	29	C3H3O+
65.0386	999	C5H5+
67.0542	2	C5H7+
68.9971	9	C3HO2+
69.0335	3	C4H5O+
71.0128	2	C3H3O2+
79.0178	7	C5H3O+
83.0127	5	C4H3O2+
91.0543	2	C7H7+
93.0335	25	C6H5O+
97.0286	3	C5H5O2+
110.0363	9	C6H6O2+
111.0441	519	C6H7O2+
120.0445	4	C7H6NO+
123.0241	2	C7H4FO+
130.0288	225	C8H4NO+
130.04	14	C9H6O+
139.0191	3	C7H4FO2+
139.0545	2	C11H7+
145.026	166	C7H4F3+
150.0351	3	C8H5FNO+
162.0549	10	C9H8NO2+
166.0653	18	C12H8N+
167.0489	2	C12H7O+
173.021	345	C8H4F3O+
180.0446	3	C12H6NO+
186.0712	1	C12H9FN+
194.06	13	C13H8NO+
195.0677	1	C13H9NO+
200.0509	3	C12H7FNO+
214.0664	20	C13H9FNO+
222.0552	12	C14H8NO2+
224.0503	3	C14H7FNO+
240.0656	4	C12H9F3NO+
242.0613	405	C14H9FNO2+
262.0671	8	C14H10F2NO2+
