Mass spectrum: 4-Butyloxyaniline; LC-ESI-QFT; MS2; CE: 60; R=17500; [M+H]+
Name: 4-Butyloxyaniline
Name: 4-butoxyaniline
Formula: C10H15NO
Exact mass: 165.1154
SMILES: CCCCOC1=CC=C(N)C=C1
InChI: InChI=1S/C10H15NO/c1-2-3-8-12-10-6-4-9(11)5-7-10/h4-7H,2-3,8,11H2,1H3
Instrument: Q Exactive Orbitrap (Thermo Scientific)
Instrument type: LC-ESI-QFT
Ms type: MS2
Ion mode: POSITIVE
Ionization: ESI
Fragmentation mode: HCD
Collision energy: 60
Resolution: 17500
Column name: Acquity BEH C18 1.7um, 2.1x150mm (Waters)
Retention time: 13.671 min
Base peak: 79.0212
Precursor m/z: 166.1226
Precursor type: [M+H]+
Precursor intensity: 6346469.125
m/z	relative intensity	assigned
53.0022	2	C3HO+
55.0543	1	C4H7+
57.0699	16	C4H9+
65.0386	163	C5H5+
67.0416	4	C4H5N+
67.0542	10	C5H7+
68.0493	1	C4H6N+
69.0335	1	C4H5O+
80.0495	6	C5H6N+
81.0574	4	C5H7N+
82.0651	67	C5H8N+
83.0492	1	C5H7O+
92.0495	151	C6H6N+
93.0335	90	C6H5O+
93.0573	10	C6H7N+
109.0524	30	C6H7NO+
110.0601	999	C6H8NO+
124.0758	2	C7H10NO+
165.1149	2	C10H15NO+
166.1227	161	C10H16NO+
