Mass spectrum: 4-Butyloxyaniline; LC-ESI-QFT; MS2; CE: 45; R=17500; [M+H]+
Name: 4-Butyloxyaniline
Name: 4-butoxyaniline
Formula: C10H15NO
Exact mass: 165.1154
SMILES: CCCCOC1=CC=C(N)C=C1
InChI: InChI=1S/C10H15NO/c1-2-3-8-12-10-6-4-9(11)5-7-10/h4-7H,2-3,8,11H2,1H3
Instrument: Q Exactive Orbitrap (Thermo Scientific)
Instrument type: LC-ESI-QFT
Ms type: MS2
Ion mode: POSITIVE
Ionization: ESI
Fragmentation mode: HCD
Collision energy: 45
Resolution: 17500
Column name: Acquity BEH C18 1.7um, 2.1x150mm (Waters)
Retention time: 13.671 min
Base peak: 79.0212
Precursor m/z: 166.1226
Precursor type: [M+H]+
Precursor intensity: 6967215.40625
m/z	relative intensity	assigned
57.0699	12	C4H9+
65.0385	32	C5H5+
67.0541	4	C5H7+
74.0964	1	C4H12N+
80.0494	1	C5H6N+
82.0651	31	C5H8N+
92.0495	68	C6H6N+
93.0335	35	C6H5O+
93.0571	3	C6H7N+
109.0522	11	C6H7NO+
110.06	999	C6H8NO+
124.0758	1	C7H10NO+
165.1149	2	C10H15NO+
166.1226	726	C10H16NO+
