Mass spectrum: Flufenamic acid; LC-ESI-QFT; MS2; CE: 45; R=17500; [M+H]+
Name: Flufenamic acid
Name: 2-[3-(trifluoromethyl)anilino]benzoic acid
Formula: C14H10F3NO2
Exact mass: 281.0664
SMILES: OC(=O)C1=C(NC2=CC(=CC=C2)C(F)(F)F)C=CC=C1
InChI: InChI=1S/C14H10F3NO2/c15-14(16,17)9-4-3-5-10(8-9)18-12-7-2-1-6-11(12)13(19)20/h1-8,18H,(H,19,20)
Instrument: Q Exactive Orbitrap (Thermo Scientific)
Instrument type: LC-ESI-QFT
Ms type: MS2
Ion mode: POSITIVE
Ionization: ESI
Fragmentation mode: HCD
Collision energy: 45
Resolution: 17500
Column name: Acquity BEH C18 1.7um, 2.1x150mm (Waters)
Retention time: 17.478 min
Base peak: 79.0211
Precursor m/z: 282.0736
Precursor type: [M+H]+
Precursor intensity: 1599364.25
m/z	relative intensity	assigned
53.0023	2	C3HO+
53.0387	1	C4H5+
55.0179	10	C3H3O+
65.0386	122	C5H5+
68.997	4	C3HO2+
69.0334	1	C4H5O+
79.0178	3	C5H3O+
83.0128	1	C4H3O2+
91.0542	1	C7H7+
93.0335	10	C6H5O+
97.0284	1	C5H5O2+
110.0364	5	C6H6O2+
111.0441	184	C6H7O2+
123.024	1	C7H4FO+
130.0288	89	C8H4NO+
145.0259	8	C7H4F3+
162.0547	4	C9H8NO2+
166.0651	1	C12H8N+
173.0209	145	C8H4F3O+
180.0443	1	C12H6NO+
194.0605	3	C13H8NO+
195.0681	1	C13H9NO+
200.0504	2	C12H7FNO+
201.0349	1	C12H6FO2+
214.0663	9	C13H9FNO+
222.055	7	C14H8NO2+
224.0504	2	C14H7FNO+
240.0661	4	C12H9F3NO+
242.0612	999	C14H9FNO2+
262.0674	133	C14H10F2NO2+
