Mass spectrum: Dibenzylamine; LC-ESI-QFT; MS2; CE: 15; R=17500; [M+H]+
Name: Dibenzylamine
Name: N-benzyl-1-phenylmethanamine
Formula: C14H15N
Exact mass: 197.1204
SMILES: C(NCC1=CC=CC=C1)C1=CC=CC=C1
InChI: InChI=1S/C14H15N/c1-3-7-13(8-4-1)11-15-12-14-9-5-2-6-10-14/h1-10,15H,11-12H2
Instrument: Q Exactive Orbitrap (Thermo Scientific)
Instrument type: LC-ESI-QFT
Ms type: MS2
Ion mode: POSITIVE
Ionization: ESI
Fragmentation mode: HCD
Collision energy: 15
Resolution: 17500
Column name: Acquity BEH C18 1.7um, 2.1x150mm (Waters)
Retention time: 12.498 min
Base peak: 79.0211
Precursor m/z: 198.1277
Precursor type: [M+H]+
Precursor intensity: 23217672.09375
m/z	relative intensity	assigned
65.0386	1	C5H5+
91.0542	999	C7H7+
106.0651	53	C7H8N+
181.1011	104	C14H13+
198.1276	319	C14H16N+
