Mass spectrum: 4-Butyloxyaniline; LC-ESI-QFT; MS2; CE: 90; R=17500; [M+H]+
Name: 4-Butyloxyaniline
Name: 4-butoxyaniline
Formula: C10H15NO
Exact mass: 165.1154
SMILES: CCCCOC1=CC=C(N)C=C1
InChI: InChI=1S/C10H15NO/c1-2-3-8-12-10-6-4-9(11)5-7-10/h4-7H,2-3,8,11H2,1H3
Instrument: Q Exactive Orbitrap (Thermo Scientific)
Instrument type: LC-ESI-QFT
Ms type: MS2
Ion mode: POSITIVE
Ionization: ESI
Fragmentation mode: HCD
Collision energy: 90
Resolution: 17500
Column name: Acquity BEH C18 1.7um, 2.1x150mm (Waters)
Retention time: 13.671 min
Base peak: 79.0212
Precursor m/z: 166.1226
Precursor type: [M+H]+
Precursor intensity: 6655511.375
m/z	relative intensity	assigned
53.0022	10	C3HO+
53.0386	1	C4H5+
55.0178	4	C3H3O+
55.0543	9	C4H7+
57.0699	12	C4H9+
65.0385	999	C5H5+
67.0416	33	C4H5N+
67.0542	14	C5H7+
68.0495	2	C4H6N+
69.0335	2	C4H5O+
79.0179	1	C5H3O+
80.0495	38	C5H6N+
81.0573	35	C5H7N+
82.0651	91	C5H8N+
83.0491	5	C5H7O+
92.0495	220	C6H6N+
93.0335	102	C6H5O+
93.0573	51	C6H7N+
94.0653	1	C6H8N+
108.0444	12	C6H6NO+
109.0523	109	C6H7NO+
110.0601	376	C6H8NO+
122.0597	1	C7H8NO+
124.0759	2	C7H10NO+
166.1224	2	C10H16NO+
