Mass spectrum: Flufenamic acid; LC-ESI-QFT; MS2; CE: 75; R=17500; [M+H]+
Name: Flufenamic acid
Name: 2-[3-(trifluoromethyl)anilino]benzoic acid
Formula: C14H10F3NO2
Exact mass: 281.0664
SMILES: OC(=O)C1=C(NC2=CC(=CC=C2)C(F)(F)F)C=CC=C1
InChI: InChI=1S/C14H10F3NO2/c15-14(16,17)9-4-3-5-10(8-9)18-12-7-2-1-6-11(12)13(19)20/h1-8,18H,(H,19,20)
Instrument: Q Exactive Orbitrap (Thermo Scientific)
Instrument type: LC-ESI-QFT
Ms type: MS2
Ion mode: POSITIVE
Ionization: ESI
Fragmentation mode: HCD
Collision energy: 75
Resolution: 17500
Column name: Acquity BEH C18 1.7um, 2.1x150mm (Waters)
Retention time: 17.478 min
Base peak: 79.0211
Precursor m/z: 282.0736
Precursor type: [M+H]+
Precursor intensity: 1354168.125
m/z	relative intensity	assigned
53.0022	14	C3HO+
53.0387	2	C4H5+
53.9975	2	C2NO+
55.0179	8	C3H3O+
65.0385	999	C5H5+
67.0543	2	C5H7+
68.997	5	C3HO2+
69.0333	1	C4H5O+
78.0338	2	C5H4N+
79.0179	2	C5H3O+
83.0124	1	C4H3O2+
83.029	1	C5H4F+
83.0491	1	C5H7O+
92.0493	2	C6H6N+
93.0335	12	C6H5O+
102.0337	3	C7H4N+
110.0363	5	C6H6O2+
111.0441	189	C6H7O2+
113.0398	1	C6H6FO+
120.0445	7	C7H6NO+
123.0238	1	C7H4FO+
125.0199	1	C7H3F2+
130.0288	89	C8H4NO+
130.04	28	C9H6O+
139.0192	1	C7H4FO2+
139.0542	10	C11H7+
140.0494	3	C10H6N+
145.026	400	C7H4F3+
150.035	1	C8H5FNO+
159.0608	2	C11H8F+
162.0548	2	C9H8NO2+
166.0652	12	C12H8N+
167.0487	1	C12H7O+
173.021	160	C8H4F3O+
185.0633	2	C12H8FN+
186.0716	2	C12H9FN+
194.0601	4	C13H8NO+
201.0349	1	C12H6FO2+
214.0665	10	C13H9FNO+
242.0613	20	C14H9FNO2+
