Mass spectrum: 4-Methylbenzenesulfonic acid; LC-ESI-QFT; MS2; CE: 90; R=17500; [M-H]-
Name: 4-Methylbenzenesulfonic acid
Name: P-Toluenesulfonic acid
Formula: C7H8O3S
Exact mass: 172.0194
SMILES: CC1=CC=C(C=C1)S(O)(=O)=O
InChI: InChI=1S/C7H8O3S/c1-6-2-4-7(5-3-6)11(8,9)10/h2-5H,1H3,(H,8,9,10)
Instrument: Q Exactive Orbitrap (Thermo Scientific)
Instrument type: LC-ESI-QFT
Ms type: MS2
Ion mode: NEGATIVE
Ionization: ESI
Fragmentation mode: HCD
Collision energy: 90
Resolution: 17500
Column name: Acquity BEH C18 1.7um, 2.1x150mm (Waters)
Retention time: 10.209 min
Base peak: 171.0122
Precursor m/z: 171.0121
Precursor type: [M-H]-
Precursor intensity: 15721616.38818
m/z	relative intensity	assigned
79.9573	999	O3S-
80.9651	11	HO3S-
95.0502	6	C6H7O-
106.0424	12	C7H6O-
107.0502	172	C7H7O-
108.0217	4	C6H4O2-
123.0451	14	C7H7O2-
138.0321	1	C7H6O3-
171.0121	25	C7H7O3S-
