Mass spectrum: Flufenamic acid; LC-ESI-QFT; MS2; CE: 90; R=17500; [M+H]+
Name: Flufenamic acid
Name: 2-[3-(trifluoromethyl)anilino]benzoic acid
Formula: C14H10F3NO2
Exact mass: 281.0664
SMILES: OC(=O)C1=C(NC2=CC(=CC=C2)C(F)(F)F)C=CC=C1
InChI: InChI=1S/C14H10F3NO2/c15-14(16,17)9-4-3-5-10(8-9)18-12-7-2-1-6-11(12)13(19)20/h1-8,18H,(H,19,20)
Instrument: Q Exactive Orbitrap (Thermo Scientific)
Instrument type: LC-ESI-QFT
Ms type: MS2
Ion mode: POSITIVE
Ionization: ESI
Fragmentation mode: HCD
Collision energy: 90
Resolution: 17500
Column name: Acquity BEH C18 1.7um, 2.1x150mm (Waters)
Retention time: 17.478 min
Base peak: 79.0211
Precursor m/z: 282.0736
Precursor type: [M+H]+
Precursor intensity: 1287092.875
m/z	relative intensity	assigned
53.0022	29	C3HO+
53.9975	5	C2NO+
55.0179	3	C3H3O+
65.0386	999	C5H5+
68.9972	1	C3HO2+
78.0338	4	C5H4N+
79.0179	1	C5H3O+
83.0131	1	C4H3O2+
83.0292	3	C5H4F+
83.0491	2	C5H7O+
92.0494	2	C6H6N+
93.0337	3	C6H5O+
102.0339	8	C7H4N+
111.0441	56	C6H7O2+
113.0397	13	C6H6FO+
120.0444	9	C7H6NO+
125.0197	10	C7H3F2+
130.0289	33	C8H4NO+
130.0401	40	C9H6O+
139.0543	14	C11H7+
140.0497	10	C10H6N+
145.0261	614	C7H4F3+
159.0609	2	C11H8F+
166.0653	5	C12H8N+
173.0211	50	C8H4F3O+
185.0635	2	C12H8FN+
214.0661	6	C13H9FNO+
