Mass spectrum: Dibenzylamine; LC-ESI-QFT; MS2; CE: 15; R=17500; [M-H]-
Name: Dibenzylamine
Name: N-benzyl-1-phenylmethanamine
Formula: C14H15N
Exact mass: 197.1204
SMILES: C(NCC1=CC=CC=C1)C1=CC=CC=C1
InChI: InChI=1S/C14H15N/c1-3-7-13(8-4-1)11-15-12-14-9-5-2-6-10-14/h1-10,15H,11-12H2
Instrument: Q Exactive Orbitrap (Thermo Scientific)
Instrument type: LC-ESI-QFT
Ms type: MS2
Ion mode: NEGATIVE
Ionization: ESI
Fragmentation mode: HCD
Collision energy: 15
Resolution: 17500
Column name: Acquity BEH C18 1.7um, 2.1x150mm (Waters)
Retention time: 19.451 min
Base peak: 240.1031
Precursor m/z: 196.1132
Precursor type: [M-H]-
Precursor intensity: 1697817.464844
m/z	relative intensity	assigned
179.0866	3	C14H11-
180.0821	7	C13H10N-
192.0821	6	C14H10N-
194.0975	6	C14H12N-
196.1132	999	C14H14N-
