Mass spectrum: 4-Methylbenzenesulfonic acid; LC-ESI-QFT; MS2; CE: 45; R=17500; [M-H]-
Name: 4-Methylbenzenesulfonic acid
Name: P-Toluenesulfonic acid
Formula: C7H8O3S
Exact mass: 172.0194
SMILES: CC1=CC=C(C=C1)S(O)(=O)=O
InChI: InChI=1S/C7H8O3S/c1-6-2-4-7(5-3-6)11(8,9)10/h2-5H,1H3,(H,8,9,10)
Instrument: Q Exactive Orbitrap (Thermo Scientific)
Instrument type: LC-ESI-QFT
Ms type: MS2
Ion mode: NEGATIVE
Ionization: ESI
Fragmentation mode: HCD
Collision energy: 45
Resolution: 17500
Column name: Acquity BEH C18 1.7um, 2.1x150mm (Waters)
Retention time: 10.209 min
Base peak: 171.0122
Precursor m/z: 171.0121
Precursor type: [M-H]-
Precursor intensity: 15169260.01709
m/z	relative intensity	assigned
79.9573	256	O3S-
80.9651	2	HO3S-
107.0502	274	C7H7O-
171.0121	999	C7H7O3S-
