Mass spectrum: Pentachlorophenol; LC-ESI-QFT; MS2; CE: 75; R=17500; [M-H]-
Name: Pentachlorophenol
Name: 2,3,4,5,6-pentachlorophenol
Formula: C6HCl5O
Exact mass: 263.8470
SMILES: OC1=C(Cl)C(Cl)=C(Cl)C(Cl)=C1Cl
InChI: InChI=1S/C6HCl5O/c7-1-2(8)4(10)6(12)5(11)3(1)9/h12H
Instrument: Q Exactive Orbitrap (Thermo Scientific)
Instrument type: LC-ESI-QFT
Ms type: MS2
Ion mode: NEGATIVE
Ionization: ESI
Fragmentation mode: HCD
Collision energy: 75
Resolution: 17500
Column name: Acquity BEH C18 1.7um, 2.1x150mm (Waters)
Retention time: 20.300 min
Base peak: 264.8368
Precursor m/z: 262.8397
Precursor type: [M-H]-
Precursor intensity: 15641424.43652
m/z	relative intensity	assigned
262.8399	999	C6Cl5O-
