Mass spectrum: Iopanoic acid; LC-ESI-QFT; MS2; CE: 15; R=17500; [M-H]-
Name: Iopanoic acid
Name: 2-[(3-amino-2,4,6-triiodophenyl)methyl]butanoic acid
Formula: C11H12I3NO2
Exact mass: 570.8002
SMILES: CCC(CC1=C(I)C=C(I)C(N)=C1I)C(O)=O
InChI: InChI=1S/C11H12I3NO2/c1-2-5(11(16)17)3-6-7(12)4-8(13)10(15)9(6)14/h4-5H,2-3,15H2,1H3,(H,16,17)
Instrument: Q Exactive Orbitrap (Thermo Scientific)
Instrument type: LC-ESI-QFT
Ms type: MS2
Ion mode: NEGATIVE
Ionization: ESI
Fragmentation mode: HCD
Collision energy: 15
Resolution: 17500
Column name: Acquity BEH C18 1.7um, 2.1x150mm (Waters)
Retention time: 19.340 min
Base peak: 126.905
Precursor m/z: 569.7929
Precursor type: [M-H]-
Precursor intensity: 580242.4023438
m/z	relative intensity	assigned
126.905	999	I-
