Mass spectrum: 4-Butyloxyaniline; LC-ESI-QFT; MS2; CE: 90; R=17500; [M-H]-
Name: 4-Butyloxyaniline
Name: 4-butoxyaniline
Formula: C10H15NO
Exact mass: 165.1154
SMILES: CCCCOC1=CC=C(N)C=C1
InChI: InChI=1S/C10H15NO/c1-2-3-8-12-10-6-4-9(11)5-7-10/h4-7H,2-3,8,11H2,1H3
Instrument: Q Exactive Orbitrap (Thermo Scientific)
Instrument type: LC-ESI-QFT
Ms type: MS2
Ion mode: NEGATIVE
Ionization: ESI
Fragmentation mode: HCD
Collision energy: 90
Resolution: 17500
Column name: Acquity BEH C18 1.7um, 2.1x150mm (Waters)
Retention time: 17.540 min
Base peak: 367.2026
Precursor m/z: 164.1081
Precursor type: [M-H]-
Precursor intensity: 834902.6230469
m/z	relative intensity	assigned
65.0396	8	C5H5-
93.0347	62	C6H5O-
107.0377	14	C6H5NO-
108.0454	10	C6H6NO-
118.0299	15	C7H4NO-
119.0501	6	C8H7O-
120.0455	999	C7H6NO-
134.0613	37	C8H8NO-
135.0687	5	C8H9NO-
136.0769	3	C8H10NO-
