Mass spectrum: trans-2-Ethoxy-5-(1-propenyl)phenol; LC-ESI-QFT; MS2; CE: 30; R=17500; [M-H]-
Name: trans-2-Ethoxy-5-(1-propenyl)phenol
Name: Vanitrope
Name: 2-ethoxy-5-[(E)-prop-1-enyl]phenol
Formula: C11H14O2
Exact mass: 178.0994
SMILES: CCOC1=C(O)C=C(\C=C\C)C=C1
InChI: InChI=1S/C11H14O2/c1-3-5-9-6-7-11(13-4-2)10(12)8-9/h3,5-8,12H,4H2,1-2H3/b5-3+
Instrument: Q Exactive Orbitrap (Thermo Scientific)
Instrument type: LC-ESI-QFT
Ms type: MS2
Ion mode: NEGATIVE
Ionization: ESI
Fragmentation mode: HCD
Collision energy: 30
Resolution: 17500
Column name: Acquity BEH C18 1.7um, 2.1x150mm (Waters)
Retention time: 17.227 min
Base peak: 193.087
Precursor m/z: 177.0921
Precursor type: [M-H]-
Precursor intensity: 1153415.454102
m/z	relative intensity	assigned
161.0608	2	C10H9O2-
177.0921	999	C11H13O2-
