Mass spectrum: Flufenamic acid; LC-ESI-QFT; MS2; CE: 90; R=17500; [M-H]-
Name: Flufenamic acid
Name: 2-[3-(trifluoromethyl)anilino]benzoic acid
Formula: C14H10F3NO2
Exact mass: 281.0664
SMILES: OC(=O)C1=C(NC2=CC(=CC=C2)C(F)(F)F)C=CC=C1
InChI: InChI=1S/C14H10F3NO2/c15-14(16,17)9-4-3-5-10(8-9)18-12-7-2-1-6-11(12)13(19)20/h1-8,18H,(H,19,20)
Instrument: Q Exactive Orbitrap (Thermo Scientific)
Instrument type: LC-ESI-QFT
Ms type: MS2
Ion mode: NEGATIVE
Ionization: ESI
Fragmentation mode: HCD
Collision energy: 90
Resolution: 17500
Column name: Acquity BEH C18 1.7um, 2.1x150mm (Waters)
Retention time: 19.257 min
Base peak: 280.059
Precursor m/z: 280.0591
Precursor type: [M-H]-
Precursor intensity: 71502378.87891
m/z	relative intensity	assigned
62.9888	18	CFO2-
65.0397	7	C5H5-
68.9958	54	CF3-
73.0084	66	C6H-
74.0036	14	C5N-
90.0349	11	C6H4N-
92.0506	203	C6H6N-
100.0193	23	C7H2N-
101.0397	8	C8H5-
102.035	10	C7H4N-
116.0505	6	C8H6N-
119.0177	3	C7H2FN-
120.0255	92	C7H3FN-
126.0348	9	C9H4N-
133.0269	8	C6H4F3-
140.0318	13	C7H4F2N-
140.0504	13	C10H6N-
150.0349	7	C11H4N-
152.0505	3	C11H6N-
155.0378	2	C10H5NO-
160.038	503	C7H5F3N-
166.0662	117	C12H8N-
168.0455	12	C11H6NO-
170.0414	6	C11H5FN-
174.0349	172	C13H4N-
175.0428	3	C13H5N-
176.0506	999	C13H6N-
179.0377	23	C12H5NO-
181.0534	25	C12H7NO-
183.0326	7	C11H5NO2-
190.0474	7	C11H6F2N-
194.0411	443	C13H5FN-
195.0492	5	C13H6FN-
196.0568	14	C13H7FN-
198.0361	3	C12H5FNO-
199.0438	32	C12H6FNO-
200.052	11	C12H7FNO-
207.0324	26	C13H5NO2-
210.0201	2	C10H3F3NO-
212.0518	7	C13H7FNO-
214.0475	41	C13H6F2N-
215.0552	21	C13H7F2N-
216.0627	4	C13H8F2N-
226.0309	5	C13H5FNO2-
227.0388	88	C13H6FNO2-
234.0536	277	C13H7F3N-
236.0692	7	C13H9F3N-
