Mass spectrum: Monomethyl phthalate; LC-ESI-QFT; MS2; CE: 90; R=17500; [M-H]-
Name: Monomethyl phthalate
Name: 2-(Methoxycarbonyl)benzoic acid
Name: 2-methoxycarbonylbenzoic acid
Formula: C9H8O4
Exact mass: 180.0423
SMILES: COC(=O)C1=C(C=CC=C1)C(O)=O
InChI: InChI=1S/C9H8O4/c1-13-9(12)7-5-3-2-4-6(7)8(10)11/h2-5H,1H3,(H,10,11)
Instrument: Q Exactive Orbitrap (Thermo Scientific)
Instrument type: LC-ESI-QFT
Ms type: MS2
Ion mode: NEGATIVE
Ionization: ESI
Fragmentation mode: HCD
Collision energy: 90
Resolution: 17500
Column name: Acquity BEH C18 1.7um, 2.1x150mm (Waters)
Retention time: 13.422 min
Base peak: 179.035
Precursor m/z: 179.035
Precursor type: [M-H]-
Precursor intensity: 4243641.374756
m/z	relative intensity	assigned
75.024	999	C6H3-
93.0347	380	C6H5O-
121.0292	623	C7H5O2-
