Mass spectrum: Monomethyl phthalate; LC-ESI-QFT; MS2; CE: 90; R=17500; [M+H]+
Name: Monomethyl phthalate
Name: 2-(Methoxycarbonyl)benzoic acid
Name: 2-methoxycarbonylbenzoic acid
Formula: C9H8O4
Exact mass: 180.0423
SMILES: COC(=O)C1=C(C=CC=C1)C(O)=O
InChI: InChI=1S/C9H8O4/c1-13-9(12)7-5-3-2-4-6(7)8(10)11/h2-5H,1H3,(H,10,11)
Instrument: Q Exactive Orbitrap (Thermo Scientific)
Instrument type: LC-ESI-QFT
Ms type: MS2
Ion mode: POSITIVE
Ionization: ESI
Fragmentation mode: HCD
Collision energy: 90
Resolution: 17500
Column name: Acquity BEH C18 1.7um, 2.1x150mm (Waters)
Retention time: 19.153 min
Base peak: 79.0211
Precursor m/z: 181.0495
Precursor type: [M+H]+
Precursor intensity: 8674194.09375
m/z	relative intensity	assigned
50.0151	2	C4H2+
51.023	2	C4H3+
53.0022	13	C3HO+
53.0386	117	C4H5+
55.0179	13	C3H3O+
63.023	5	C5H3+
65.0386	999	C5H5+
67.0542	5	C5H7+
68.9971	3	C3HO2+
69.0334	1	C4H5O+
71.0127	1	C3H3O2+
77.0385	65	C6H5+
79.0542	45	C6H7+
80.0257	1	C5H4O+
81.0335	13	C5H5O+
81.07	1	C6H9+
91.0543	6	C7H7+
92.0257	190	C6H4O+
93.0335	97	C6H5O+
94.0413	13	C6H6O+
95.0492	355	C6H7O+
97.0286	1	C5H5O2+
98.0363	11	C5H6O2+
105.0336	70	C7H5O+
107.0493	6	C7H7O+
109.0649	4	C7H9O+
110.036	4	C6H6O2+
111.0441	122	C6H7O2+
120.0206	5	C7H4O2+
121.0285	278	C7H5O2+
122.0368	1	C7H6O2+
125.0599	2	C7H9O2+
133.0284	70	C8H5O2+
135.0441	87	C8H7O2+
138.0312	20	C7H6O3+
149.0234	155	C8H5O3+
152.0467	1	C8H8O3+
163.039	41	C9H7O3+
165.055	2	C9H9O3+
181.0495	2	C9H9O4+
