Mass spectrum: Monomethyl phthalate; LC-ESI-QFT; MS2; CE: 60; R=17500; [M+H]+
Name: Monomethyl phthalate
Name: 2-(Methoxycarbonyl)benzoic acid
Name: 2-methoxycarbonylbenzoic acid
Formula: C9H8O4
Exact mass: 180.0423
SMILES: COC(=O)C1=C(C=CC=C1)C(O)=O
InChI: InChI=1S/C9H8O4/c1-13-9(12)7-5-3-2-4-6(7)8(10)11/h2-5H,1H3,(H,10,11)
Instrument: Q Exactive Orbitrap (Thermo Scientific)
Instrument type: LC-ESI-QFT
Ms type: MS2
Ion mode: POSITIVE
Ionization: ESI
Fragmentation mode: HCD
Collision energy: 60
Resolution: 17500
Column name: Acquity BEH C18 1.7um, 2.1x150mm (Waters)
Retention time: 19.153 min
Base peak: 79.0211
Precursor m/z: 181.0495
Precursor type: [M+H]+
Precursor intensity: 10248032.875
m/z	relative intensity	assigned
53.0021	1	C3HO+
53.0386	24	C4H5+
55.0178	3	C3H3O+
65.0385	123	C5H5+
77.0384	9	C6H5+
79.0542	37	C6H7+
81.0334	2	C5H5O+
91.0543	1	C7H7+
92.0256	15	C6H4O+
93.0335	51	C6H5O+
94.0412	3	C6H6O+
95.0491	82	C6H7O+
98.0362	7	C5H6O2+
105.0335	24	C7H5O+
107.0491	7	C7H7O+
109.0649	1	C7H9O+
110.0363	1	C6H6O2+
111.044	35	C6H7O2+
120.0205	1	C7H4O2+
121.0284	348	C7H5O2+
133.0284	164	C8H5O2+
135.044	181	C8H7O2+
138.0313	6	C7H6O3+
149.0233	999	C8H5O3+
163.0389	474	C9H7O3+
165.0546	4	C9H9O3+
167.034	5	C8H7O4+
181.0494	27	C9H9O4+
