Mass spectrum: Monomethyl phthalate; LC-ESI-QFT; MS2; CE: 45; R=17500; [M+H]+
Name: Monomethyl phthalate
Name: 2-(Methoxycarbonyl)benzoic acid
Name: 2-methoxycarbonylbenzoic acid
Formula: C9H8O4
Exact mass: 180.0423
SMILES: COC(=O)C1=C(C=CC=C1)C(O)=O
InChI: InChI=1S/C9H8O4/c1-13-9(12)7-5-3-2-4-6(7)8(10)11/h2-5H,1H3,(H,10,11)
Instrument: Q Exactive Orbitrap (Thermo Scientific)
Instrument type: LC-ESI-QFT
Ms type: MS2
Ion mode: POSITIVE
Ionization: ESI
Fragmentation mode: HCD
Collision energy: 45
Resolution: 17500
Column name: Acquity BEH C18 1.7um, 2.1x150mm (Waters)
Retention time: 19.153 min
Base peak: 79.0211
Precursor m/z: 181.0495
Precursor type: [M+H]+
Precursor intensity: 7671321.359375
m/z	relative intensity	assigned
53.0386	2	C4H5+
65.0385	12	C5H5+
77.0385	1	C6H5+
79.0542	5	C6H7+
92.0257	1	C6H4O+
93.0334	6	C6H5O+
95.0491	6	C6H7O+
105.0334	2	C7H5O+
107.0491	1	C7H7O+
111.044	2	C6H7O2+
121.0284	75	C7H5O2+
133.0284	56	C8H5O2+
135.044	45	C8H7O2+
149.0233	999	C8H5O3+
163.0389	572	C9H7O3+
165.0547	1	C9H9O3+
167.0341	7	C8H7O4+
181.0495	24	C9H9O4+
