Mass spectrum: Monomethyl phthalate; LC-ESI-QFT; MS2; CE: 75; R=17500; [M+H]+
Name: Monomethyl phthalate
Name: 2-(Methoxycarbonyl)benzoic acid
Name: 2-methoxycarbonylbenzoic acid
Formula: C9H8O4
Exact mass: 180.0423
SMILES: COC(=O)C1=C(C=CC=C1)C(O)=O
InChI: InChI=1S/C9H8O4/c1-13-9(12)7-5-3-2-4-6(7)8(10)11/h2-5H,1H3,(H,10,11)
Instrument: Q Exactive Orbitrap (Thermo Scientific)
Instrument type: LC-ESI-QFT
Ms type: MS2
Ion mode: POSITIVE
Ionization: ESI
Fragmentation mode: HCD
Collision energy: 75
Resolution: 17500
Column name: Acquity BEH C18 1.7um, 2.1x150mm (Waters)
Retention time: 19.153 min
Base peak: 79.0211
Precursor m/z: 181.0495
Precursor type: [M+H]+
Precursor intensity: 8283440.96875
m/z	relative intensity	assigned
50.0152	1	C4H2+
51.023	2	C4H3+
53.0022	10	C3HO+
53.0386	154	C4H5+
55.0179	16	C3H3O+
63.0229	2	C5H3+
65.0386	966	C5H5+
67.0542	6	C5H7+
68.9971	5	C3HO2+
69.0335	1	C4H5O+
71.0129	1	C3H3O2+
76.0305	1	C6H4+
77.0385	51	C6H5+
79.0542	118	C6H7+
80.0256	3	C5H4O+
81.0335	14	C5H5O+
81.0699	2	C6H9+
91.0543	9	C7H7+
92.0257	150	C6H4O+
93.0336	218	C6H5O+
94.0413	18	C6H6O+
95.0492	467	C6H7O+
97.0285	2	C5H5O2+
98.0363	26	C5H6O2+
105.0336	129	C7H5O+
107.0493	15	C7H7O+
109.0649	6	C7H9O+
110.0363	5	C6H6O2+
111.0441	201	C6H7O2+
120.0207	10	C7H4O2+
121.0285	881	C7H5O2+
122.0369	2	C7H6O2+
125.0597	3	C7H9O2+
133.0284	292	C8H5O2+
135.0441	379	C8H7O2+
138.0312	32	C7H6O3+
149.0234	999	C8H5O3+
152.0465	1	C8H8O3+
163.039	338	C9H7O3+
165.0546	6	C9H9O3+
167.034	6	C8H7O4+
181.0494	23	C9H9O4+
