Mass spectrum: 2-mercaptobenzothiolate; LC-ESI-QFT; MS2; CE: 60; R=17500; [M-H]-
Name: 2-mercaptobenzothiolate
Formula: C7H5NS2
Exact mass: 166.9863
SMILES: SC1=NC2=C(S1)C=CC=C2
InChI: InChI=1S/C7H5NS2/c9-7-8-5-3-1-2-4-6(5)10-7/h1-4H,(H,8,9)
Instrument: Q Exactive Orbitrap (Thermo Scientific)
Instrument type: LC-ESI-QFT
Ms type: MS2
Ion mode: NEGATIVE
Ionization: ESI
Fragmentation mode: HCD
Collision energy: 60
Resolution: 17500
Column name: Acquity BEH C18 1.7um, 2.1x150mm (Waters)
Retention time: 15.208 min
Base peak: 165.9791
Precursor m/z: 165.9791
Precursor type: [M-H]-
Precursor intensity: 21377289.80176
m/z	relative intensity	assigned
57.9756	350	CNS-
63.9447	20	S2-
90.0348	3	C6H4N-
102.0349	134	C7H4N-
134.007	999	C7H4NS-
138.9679	1	C6H3S2-
164.9712	7	C7H3NS2-
165.979	896	C7H4NS2-
