Mass spectrum: Monomethyl phthalate; LC-ESI-QFT; MS2; CE: 30; R=17500; [M+H]+
Name: Monomethyl phthalate
Name: 2-(Methoxycarbonyl)benzoic acid
Name: 2-methoxycarbonylbenzoic acid
Formula: C9H8O4
Exact mass: 180.0423
SMILES: COC(=O)C1=C(C=CC=C1)C(O)=O
InChI: InChI=1S/C9H8O4/c1-13-9(12)7-5-3-2-4-6(7)8(10)11/h2-5H,1H3,(H,10,11)
Instrument: Q Exactive Orbitrap (Thermo Scientific)
Instrument type: LC-ESI-QFT
Ms type: MS2
Ion mode: POSITIVE
Ionization: ESI
Fragmentation mode: HCD
Collision energy: 30
Resolution: 17500
Column name: Acquity BEH C18 1.7um, 2.1x150mm (Waters)
Retention time: 19.153 min
Base peak: 79.0211
Precursor m/z: 181.0495
Precursor type: [M+H]+
Precursor intensity: 7220099.59375
m/z	relative intensity	assigned
65.0386	1	C5H5+
121.0283	5	C7H5O2+
133.0283	5	C8H5O2+
135.0438	2	C8H7O2+
149.0233	999	C8H5O3+
163.0389	606	C9H7O3+
167.034	6	C8H7O4+
181.0495	25	C9H9O4+
