Mass spectrum: Nicotinic acid; LC-ESI-QFT; MS2; CE: 30; R=17500; [M-H]-
Name: Nicotinic acid
Name: pyridine-3-carboxylic acid
Formula: C6H5NO2
Exact mass: 123.032
SMILES: OC(=O)C1=CC=CN=C1
InChI: InChI=1S/C6H5NO2/c8-6(9)5-2-1-3-7-4-5/h1-4H,(H,8,9)
Instrument: Q Exactive Orbitrap (Thermo Scientific)
Instrument type: LC-ESI-QFT
Ms type: MS2
Ion mode: NEGATIVE
Ionization: ESI
Fragmentation mode: HCD
Collision energy: 30
Resolution: 17500
Column name: Acquity BEH C18 1.7um, 2.1x150mm (Waters)
Retention time: 2.448 min
Base peak: 63.9625
Precursor m/z: 122.0248
Precursor type: [M-H]-
Precursor intensity: 775425.5891113
m/z	relative intensity	assigned
78.0349	439	C5H4N-
122.0249	999	C6H4NO2-
