Mass spectrum: 3-nitrobenzoic acid; LC-ESI-QFT; MS2; CE: 45; R=17500; [M-H]-
Name: 3-nitrobenzoic acid
Formula: C7H5NO4
Exact mass: 167.0219
SMILES: OC(=O)C1=CC=CC(=C1)[N+]([O-])=O
InChI: InChI=1S/C7H5NO4/c9-7(10)5-2-1-3-6(4-5)8(11)12/h1-4H,(H,9,10)
Instrument: Q Exactive Orbitrap (Thermo Scientific)
Instrument type: LC-ESI-QFT
Ms type: MS2
Ion mode: NEGATIVE
Ionization: ESI
Fragmentation mode: HCD
Collision energy: 45
Resolution: 17500
Column name: Acquity BEH C18 1.7um, 2.1x150mm (Waters)
Retention time: 14.466 min
Base peak: 183.0047
Precursor m/z: 166.0146
Precursor type: [M-H]-
Precursor intensity: 6299615.55957
m/z	relative intensity	assigned
63.024	13	C5H3-
65.0033	4	C4HO-
75.024	132	C6H3-
82.0061	22	C4H2O2-
91.019	34	C6H3O-
92.0269	29	C6H4O-
95.0139	95	C5H3O2-
108.0217	200	C6H4O2-
119.0138	104	C7H3O2-
122.0248	999	C6H4NO2-
123.0089	9	C6H3O3-
138.0195	7	C6H4NO3-
166.0147	45	C7H4NO4-
