Mass spectrum: 4,4`-Bipyridine; LC-ESI-QFT; MS2; CE: 75; R=17500; [M+H]+
Name: 4,4'-Bipyridine
Name: 4-pyridin-4-ylpyridine
Formula: C10H8N2
Exact mass: 156.0687
SMILES: C1=CC(=CC=N1)C1=CC=NC=C1
InChI: InChI=1S/C10H8N2/c1-5-11-6-2-9(1)10-3-7-12-8-4-10/h1-8H
Instrument: Q Exactive Orbitrap (Thermo Scientific)
Instrument type: LC-ESI-QFT
Ms type: MS2
Ion mode: POSITIVE
Ionization: ESI
Fragmentation mode: HCD
Collision energy: 75
Resolution: 17500
Column name: Acquity BEH C18 1.7um, 2.1x150mm (Waters)
Retention time: 2.738 min
Base peak: 79.0211
Precursor m/z: 157.076
Precursor type: [M+H]+
Precursor intensity: 62822242.04688
m/z	relative intensity	assigned
51.023	1	C4H3+
53.0386	4	C4H5+
54.0338	1	C3H4N+
77.0385	1	C6H5+
78.0338	16	C5H4N+
79.0415	1	C5H5N+
80.0494	8	C5H6N+
97.0075	3	C8H+
102.0464	1	C8H6+
103.0542	34	C8H7+
104.0494	8	C7H6N+
105.0447	4	C6H5N2+
117.0573	8	C8H7N+
128.0496	5	C9H6N+
129.0572	1	C9H7N+
130.0651	121	C9H8N+
140.0497	1	C10H6N+
142.0526	17	C9H6N2+
155.0604	12	C10H7N2+
156.0682	48	C10H8N2+
157.076	999	C10H9N2+
