Mass spectrum: 4,4`-Bipyridine; LC-ESI-QFT; MS2; CE: 15; R=17500; [M+H]+
Name: 4,4'-Bipyridine
Name: 4-pyridin-4-ylpyridine
Formula: C10H8N2
Exact mass: 156.0687
SMILES: C1=CC(=CC=N1)C1=CC=NC=C1
InChI: InChI=1S/C10H8N2/c1-5-11-6-2-9(1)10-3-7-12-8-4-10/h1-8H
Instrument: Q Exactive Orbitrap (Thermo Scientific)
Instrument type: LC-ESI-QFT
Ms type: MS2
Ion mode: POSITIVE
Ionization: ESI
Fragmentation mode: HCD
Collision energy: 15
Resolution: 17500
Column name: Acquity BEH C18 1.7um, 2.1x150mm (Waters)
Retention time: 2.738 min
Base peak: 79.0211
Precursor m/z: 157.076
Precursor type: [M+H]+
Precursor intensity: 53768939.9375
m/z	relative intensity	assigned
157.076	999	C10H9N2+
