Mass spectrum: 4,4`-Bipyridine; LC-ESI-QFT; MS2; CE: 90; R=17500; [M+H]+
Name: 4,4'-Bipyridine
Name: 4-pyridin-4-ylpyridine
Formula: C10H8N2
Exact mass: 156.0687
SMILES: C1=CC(=CC=N1)C1=CC=NC=C1
InChI: InChI=1S/C10H8N2/c1-5-11-6-2-9(1)10-3-7-12-8-4-10/h1-8H
Instrument: Q Exactive Orbitrap (Thermo Scientific)
Instrument type: LC-ESI-QFT
Ms type: MS2
Ion mode: POSITIVE
Ionization: ESI
Fragmentation mode: HCD
Collision energy: 90
Resolution: 17500
Column name: Acquity BEH C18 1.7um, 2.1x150mm (Waters)
Retention time: 2.738 min
Base peak: 79.0211
Precursor m/z: 157.076
Precursor type: [M+H]+
Precursor intensity: 58723577.125
m/z	relative intensity	assigned
51.0229	10	C4H3+
53.0386	29	C4H5+
54.0338	5	C3H4N+
77.0385	12	C6H5+
78.0338	67	C5H4N+
79.0415	7	C5H5N+
80.0495	23	C5H6N+
97.0076	6	C8H+
102.0464	11	C8H6+
103.0542	151	C8H7+
104.0495	33	C7H6N+
105.0448	28	C6H5N2+
117.0572	23	C8H7N+
128.0495	33	C9H6N+
129.0573	11	C9H7N+
130.0652	314	C9H8N+
140.0496	5	C10H6N+
142.0526	55	C9H6N2+
155.0605	53	C10H7N2+
156.0682	117	C10H8N2+
157.0761	999	C10H9N2+
