Mass spectrum: Benzo(f)quinoline; LC-ESI-QFT; MS2; CE: 90; R=17500; [M+H]+
Name: Benzo(f)quinoline
Name: benzo[f]quinoline
Formula: C13H9N
Exact mass: 179.0735
SMILES: C1=CC=C2C(C=CC3=C2C=CC=N3)=C1
InChI: InChI=1S/C13H9N/c1-2-5-11-10(4-1)7-8-13-12(11)6-3-9-14-13/h1-9H
Instrument: Q Exactive Orbitrap (Thermo Scientific)
Instrument type: LC-ESI-QFT
Ms type: MS2
Ion mode: POSITIVE
Ionization: ESI
Fragmentation mode: HCD
Collision energy: 90
Resolution: 17500
Column name: Acquity BEH C18 1.7um, 2.1x150mm (Waters)
Retention time: 13.561 min
Base peak: 79.0211
Precursor m/z: 180.0808
Precursor type: [M+H]+
Precursor intensity: 17382000.84375
m/z	relative intensity	assigned
120.0807	11	C8H10N+
127.0541	3	C10H7+
151.054	6	C12H7+
152.062	490	C12H8+
153.0697	106	C12H9+
154.0648	4	C11H8N+
178.0652	49	C13H8N+
179.0731	65	C13H9N+
180.0806	999	C13H10N+
