Mass spectrum: MCPB; LC-ESI-QFT; MS2; CE: 60; R=17500; [M-H]-
Name: MCPB
Name: 4-(4-Chloro-2-methylphenoxy)butanoic acid
Formula: C11H13ClO3
Exact mass: 228.0553
SMILES: CC1=C(OCCCC(O)=O)C=CC(Cl)=C1
InChI: InChI=1S/C11H13ClO3/c1-8-7-9(12)4-5-10(8)15-6-2-3-11(13)14/h4-5,7H,2-3,6H2,1H3,(H,13,14)
Instrument: Q Exactive Orbitrap (Thermo Scientific)
Instrument type: LC-ESI-QFT
Ms type: MS2
Ion mode: NEGATIVE
Ionization: ESI
Fragmentation mode: HCD
Collision energy: 60
Resolution: 17500
Column name: Acquity BEH C18 1.7um, 2.1x150mm (Waters)
Retention time: 18.246 min
Base peak: 434.9313
Precursor m/z: 227.048
Precursor type: [M-H]-
Precursor intensity: 683834.0957031
m/z	relative intensity	assigned
141.0113	999	C7H6ClO-
