Mass spectrum: Benzo(f)quinoline; LC-ESI-QFT; MS2; CE: 60; R=17500; [M+H]+
Name: Benzo(f)quinoline
Name: benzo[f]quinoline
Formula: C13H9N
Exact mass: 179.0735
SMILES: C1=CC=C2C(C=CC3=C2C=CC=N3)=C1
InChI: InChI=1S/C13H9N/c1-2-5-11-10(4-1)7-8-13-12(11)6-3-9-14-13/h1-9H
Instrument: Q Exactive Orbitrap (Thermo Scientific)
Instrument type: LC-ESI-QFT
Ms type: MS2
Ion mode: POSITIVE
Ionization: ESI
Fragmentation mode: HCD
Collision energy: 60
Resolution: 17500
Column name: Acquity BEH C18 1.7um, 2.1x150mm (Waters)
Retention time: 13.561 min
Base peak: 79.0211
Precursor m/z: 180.0808
Precursor type: [M+H]+
Precursor intensity: 23048580.5625
m/z	relative intensity	assigned
120.0807	2	C8H10N+
152.062	7	C12H8+
153.0699	4	C12H9+
178.065	2	C13H8N+
179.073	2	C13H9N+
180.0807	999	C13H10N+
