Mass spectrum: 1,4-Diaminoanthraquinone; LC-ESI-QFT; MS2; CE: 60; R=17500; [M-H]-
Name: 1,4-Diaminoanthraquinone
Name: 1,4-diaminoanthracene-9,10-dione
Formula: C14H10N2O2
Exact mass: 238.0742
SMILES: NC1=CC=C(N)C2=C1C(=O)C1=CC=CC=C1C2=O
InChI: InChI=1S/C14H10N2O2/c15-9-5-6-10(16)12-11(9)13(17)7-3-1-2-4-8(7)14(12)18/h1-6H,15-16H2
Instrument: Q Exactive Orbitrap (Thermo Scientific)
Instrument type: LC-ESI-QFT
Ms type: MS2
Ion mode: NEGATIVE
Ionization: ESI
Fragmentation mode: HCD
Collision energy: 60
Resolution: 17500
Column name: Acquity BEH C18 1.7um, 2.1x150mm (Waters)
Retention time: 16.458 min
Base peak: 275.8488
Precursor m/z: 237.067
Precursor type: [M-H]-
Precursor intensity: 412838.2290039
m/z	relative intensity	assigned
196.0404	197	C12H6NO2-
209.0483	244	C13H7NO2-
210.0559	262	C13H8NO2-
220.0404	132	C14H6NO2-
236.0594	165	C14H8N2O2-
237.0669	999	C14H9N2O2-
