Mass spectrum: 4,4`-Bipyridine; LC-ESI-QFT; MS2; CE: 60; R=17500; [M+H]+
Name: 4,4'-Bipyridine
Name: 4-pyridin-4-ylpyridine
Formula: C10H8N2
Exact mass: 156.0687
SMILES: C1=CC(=CC=N1)C1=CC=NC=C1
InChI: InChI=1S/C10H8N2/c1-5-11-6-2-9(1)10-3-7-12-8-4-10/h1-8H
Instrument: Q Exactive Orbitrap (Thermo Scientific)
Instrument type: LC-ESI-QFT
Ms type: MS2
Ion mode: POSITIVE
Ionization: ESI
Fragmentation mode: HCD
Collision energy: 60
Resolution: 17500
Column name: Acquity BEH C18 1.7um, 2.1x150mm (Waters)
Retention time: 2.738 min
Base peak: 79.0211
Precursor m/z: 157.076
Precursor type: [M+H]+
Precursor intensity: 79673316.78125
m/z	relative intensity	assigned
78.0338	2	C5H4N+
80.0494	1	C5H6N+
97.0077	1	C8H+
103.0542	3	C8H7+
104.0493	1	C7H6N+
117.0575	1	C8H7N+
130.0651	28	C9H8N+
142.0527	3	C9H6N2+
155.0604	2	C10H7N2+
156.0682	10	C10H8N2+
157.076	999	C10H9N2+
