Mass spectrum: 2,2`-Dibenzoylaminodiphenyl disulfide; LC-ESI-QFT; MS2; CE: 90; R=17500; [M+H]+
Name: 2,2'-Dibenzoylaminodiphenyl disulfide
Name: N-[2-[(2-benzamidophenyl)disulfanyl]phenyl]benzamide
Formula: C26H20N2O2S2
Exact mass: 456.0966
SMILES: O=C(NC1=CC=CC=C1SSC1=C(NC(=O)C2=CC=CC=C2)C=CC=C1)C1=CC=CC=C1
InChI: InChI=1S/C26H20N2O2S2/c29-25(19-11-3-1-4-12-19)27-21-15-7-9-17-23(21)31-32-24-18-10-8-16-22(24)28-26(30)20-13-5-2-6-14-20/h1-18H,(H,27,29)(H,28,30)
Instrument: Q Exactive Orbitrap (Thermo Scientific)
Instrument type: LC-ESI-QFT
Ms type: MS2
Ion mode: POSITIVE
Ionization: ESI
Fragmentation mode: HCD
Collision energy: 90
Resolution: 17500
Column name: Acquity BEH C18 1.7um, 2.1x150mm (Waters)
Retention time: 15.317 min
Base peak: 79.0211
Precursor m/z: 457.1039
Precursor type: [M+H]+
Precursor intensity: 21909358.25
m/z	relative intensity	assigned
53.0022	5	C3HO+
53.0386	18	C4H5+
53.9974	1	C2NO+
54.0339	2	C3H4N+
55.0542	101	C4H7+
56.0495	34	C3H6N+
58.0651	1	C3H8N+
63.0228	3	C5H3+
65.0385	84	C5H5+
67.0416	20	C4H5N+
67.0542	33	C5H7+
68.0494	26	C4H6N+
69.0572	1	C4H7N+
69.0698	8	C5H9+
70.0651	30	C4H8N+
77.0384	4	C6H5+
79.0542	50	C6H7+
80.0494	35	C5H6N+
81.0573	12	C5H7N+
81.0699	13	C6H9+
82.0651	87	C5H8N+
83.0728	2	C5H9N+
84.0808	11	C5H10N+
89.0385	2	C7H5+
91.0542	999	C7H7+
93.0572	6	C6H7N+
93.0699	4	C7H9+
94.0651	28	C6H8N+
95.0491	23	C6H7O+
95.0728	2	C6H9N+
95.0854	3	C7H11+
96.0807	22	C6H10N+
98.0965	3	C6H12N+
103.0542	89	C8H7+
104.0493	3	C7H6N+
104.062	10	C8H8+
105.0699	70	C8H9+
106.0651	2	C7H8N+
107.0728	1	C7H9N+
108.0807	39	C7H10N+
109.0885	15	C7H11N+
115.0542	190	C9H7+
116.062	18	C9H8+
117.0573	15	C8H7N+
117.0698	99	C9H9+
118.0649	3	C8H8N+
122.0963	1	C8H12N+
127.0541	5	C10H7+
128.062	138	C10H8+
129.0698	141	C10H9+
130.0651	61	C9H8N+
131.073	6	C9H9N+
131.0854	21	C10H11+
132.0808	5	C9H10N+
141.0698	34	C11H9+
142.065	1	C10H8N+
142.0776	15	C11H10+
143.0729	17	C10H9N+
143.0855	9	C11H11+
144.0807	20	C10H10N+
145.0647	13	C10H9O+
145.0885	1	C10H11N+
146.0966	2	C10H12N+
153.0697	9	C12H9+
154.0776	5	C12H10+
155.0603	17	C10H7N2+
155.0722	3	C11H9N+
155.0853	5	C12H11+
156.0808	10	C11H10N+
157.0886	2	C11H11N+
158.0964	12	C11H12N+
160.0754	1	C10H10NO+
167.0852	1	C13H11+
168.0807	13	C12H10N+
169.0886	2	C12H11N+
170.0963	51	C12H12N+
171.1041	24	C12H13N+
184.112	5	C13H14N+
198.1276	2	C14H16N+
200.1439	1	C14H18N+
209.969	10	C8H4NO2S2+
212.9479	193	C11HOS2+
240.9428	58	C12HO2S2+
