Mass spectrum: 4-Dimethylaminoantipyrine; LC-ESI-QFT; MS2; CE: 60; R=17500; [M+H]+
Name: 4-Dimethylaminoantipyrine
Name: Aminopyrine
Name: 4-(dimethylamino)-1,5-dimethyl-2-phenylpyrazol-3-one
Formula: C13H17N3O
Exact mass: 231.1372
SMILES: CN(C)C1=C(C)N(C)N(C1=O)C1=CC=CC=C1
InChI: InChI=1S/C13H17N3O/c1-10-12(14(2)3)13(17)16(15(10)4)11-8-6-5-7-9-11/h5-9H,1-4H3
Instrument: Q Exactive Orbitrap (Thermo Scientific)
Instrument type: LC-ESI-QFT
Ms type: MS2
Ion mode: POSITIVE
Ionization: ESI
Fragmentation mode: HCD
Collision energy: 60
Resolution: 17500
Column name: Acquity BEH C18 1.7um, 2.1x150mm (Waters)
Retention time: 8.629 min
Base peak: 79.0211
Precursor m/z: 232.1444
Precursor type: [M+H]+
Precursor intensity: 24644419.96875
m/z	relative intensity	assigned
53.0386	4	C4H5+
54.0338	2	C3H4N+
55.0417	2	C3H5N+
55.0542	1	C4H7+
56.0495	838	C3H6N+
57.0573	9	C3H7N+
58.0651	999	C3H8N+
67.0416	3	C4H5N+
68.0494	11	C4H6N+
69.0446	1	C3H5N2+
70.0651	572	C4H8N+
71.073	1	C4H9N+
72.0807	381	C4H10N+
74.0601	3	C3H8NO+
77.0385	1	C6H5+
79.0543	4	C6H7+
80.0495	5	C5H6N+
82.0651	68	C5H8N+
83.0604	15	C4H7N2+
84.0444	12	C4H6NO+
84.0682	21	C4H8N2+
84.0808	62	C5H10N+
85.076	1	C4H9N2+
85.0886	4	C5H11N+
87.0917	18	C4H11N2+
91.0541	1	C7H7+
92.0495	2	C6H6N+
94.0651	4	C6H8N+
95.0491	8	C6H7O+
96.0682	11	C5H8N2+
97.0761	804	C5H9N2+
98.0839	468	C5H10N2+
99.0916	34	C5H11N2+
104.0495	4	C7H6N+
105.0448	3	C6H5N2+
106.0651	124	C7H8N+
111.0917	334	C6H11N2+
113.1073	116	C6H13N2+
115.0867	2	C5H11N2O+
118.0651	64	C8H8N+
128.0494	3	C9H6N+
130.0652	8	C9H8N+
131.0731	1	C9H9N+
132.0444	20	C8H6NO+
132.0808	11	C9H10N+
133.0762	8	C8H9N2+
134.06	9	C8H8NO+
144.0013	2	C12+
144.0808	3	C10H10N+
146.06	13	C9H8NO+
147.0919	3	C9H11N2+
149.1073	19	C9H13N2+
158.06	4	C10H8NO+
159.0917	42	C10H11N2+
173.0713	2	C10H9N2O+
173.1077	2	C11H13N2+
175.0868	4	C10H11N2O+
177.1024	5	C10H13N2O+
185.071	6	C11H9N2O+
188.0945	1	C11H12N2O+
199.0868	3	C12H11N2O+
202.0976	5	C11H12N3O+
216.1132	6	C12H14N3O+
