Mass spectrum: 2,2`-Dibenzoylaminodiphenyl disulfide; LC-ESI-QFT; MS2; CE: 75; R=17500; [M+H]+
Name: 2,2'-Dibenzoylaminodiphenyl disulfide
Name: N-[2-[(2-benzamidophenyl)disulfanyl]phenyl]benzamide
Formula: C26H20N2O2S2
Exact mass: 456.0966
SMILES: O=C(NC1=CC=CC=C1SSC1=C(NC(=O)C2=CC=CC=C2)C=CC=C1)C1=CC=CC=C1
InChI: InChI=1S/C26H20N2O2S2/c29-25(19-11-3-1-4-12-19)27-21-15-7-9-17-23(21)31-32-24-18-10-8-16-22(24)28-26(30)20-13-5-2-6-14-20/h1-18H,(H,27,29)(H,28,30)
Instrument: Q Exactive Orbitrap (Thermo Scientific)
Instrument type: LC-ESI-QFT
Ms type: MS2
Ion mode: POSITIVE
Ionization: ESI
Fragmentation mode: HCD
Collision energy: 75
Resolution: 17500
Column name: Acquity BEH C18 1.7um, 2.1x150mm (Waters)
Retention time: 15.317 min
Base peak: 79.0211
Precursor m/z: 457.1039
Precursor type: [M+H]+
Precursor intensity: 20143077.25
m/z	relative intensity	assigned
53.0022	4	C3HO+
53.0385	11	C4H5+
54.0338	2	C3H4N+
55.0542	102	C4H7+
56.0494	45	C3H6N+
58.0651	1	C3H8N+
63.0229	1	C5H3+
65.0385	43	C5H5+
67.0416	14	C4H5N+
67.0541	40	C5H7+
68.0494	27	C4H6N+
69.0573	1	C4H7N+
69.0698	15	C5H9+
70.0651	58	C4H8N+
77.0385	1	C6H5+
79.0542	41	C6H7+
80.0494	32	C5H6N+
81.0573	12	C5H7N+
81.0698	21	C6H9+
82.0651	114	C5H8N+
83.0729	4	C5H9N+
84.0808	19	C5H10N+
91.0542	999	C7H7+
93.0572	4	C6H7N+
93.0699	10	C7H9+
94.0651	27	C6H8N+
95.0491	12	C6H7O+
95.0728	4	C6H9N+
95.0855	8	C7H11+
96.0807	45	C6H10N+
98.0964	3	C6H12N+
103.0542	45	C8H7+
104.0495	2	C7H6N+
104.062	8	C8H8+
105.0698	98	C8H9+
106.0651	3	C7H8N+
107.0729	1	C7H9N+
108.0807	49	C7H10N+
109.0885	41	C7H11N+
115.0542	126	C9H7+
116.062	11	C9H8+
117.0573	13	C8H7N+
117.0698	136	C9H9+
118.0652	4	C8H8N+
119.0853	1	C9H11+
120.0807	3	C8H10N+
122.0961	1	C8H12N+
127.0541	1	C10H7+
128.062	73	C10H8+
129.0698	222	C10H9+
130.0651	50	C9H8N+
130.077	4	C2H14N2O2S+
131.0731	6	C9H9N+
131.0854	53	C10H11+
132.0807	18	C9H10N+
141.0698	31	C11H9+
142.065	1	C10H8N+
142.0776	19	C11H10+
143.0729	15	C10H9N+
143.0855	24	C11H11+
144.0807	26	C10H10N+
145.0646	6	C10H9O+
145.0885	2	C10H11N+
145.1012	2	C11H13+
146.0963	13	C10H12N+
153.0697	8	C12H9+
154.0776	7	C12H10+
155.0603	8	C10H7N2+
155.0854	14	C12H11+
156.0807	10	C11H10N+
156.0927	3	C4H16N2O2S+
157.0887	3	C11H11N+
157.101	4	C12H13+
158.0963	26	C11H12N+
159.104	3	C11H13N+
167.0853	1	C13H11+
168.0807	7	C12H10N+
168.0931	1	C13H12+
169.0887	4	C12H11N+
170.0963	46	C12H12N+
171.1041	63	C12H13N+
172.1118	3	C12H14N+
184.112	5	C13H14N+
185.1198	1	C13H15N+
198.1276	11	C14H16N+
200.1433	15	C14H18N+
212.9478	96	C11HOS2+
240.9427	150	C12HO2S2+
