Mass spectrum: 2-Acetamidophenol; LC-ESI-QFT; MS2; CE: 90; R=17500; [M-H]-
Name: 2-Acetamidophenol
Name: N-(2-hydroxyphenyl)acetamide
Formula: C8H9NO2
Exact mass: 151.0633
SMILES: CC(=O)NC1=C(O)C=CC=C1
InChI: InChI=1S/C8H9NO2/c1-6(10)9-7-4-2-3-5-8(7)11/h2-5,11H,1H3,(H,9,10)
Instrument: Q Exactive Orbitrap (Thermo Scientific)
Instrument type: LC-ESI-QFT
Ms type: MS2
Ion mode: NEGATIVE
Ionization: ESI
Fragmentation mode: HCD
Collision energy: 90
Resolution: 17500
Column name: Acquity BEH C18 1.7um, 2.1x150mm (Waters)
Retention time: 10.804 min
Base peak: 108.0455
Precursor m/z: 150.0561
Precursor type: [M-H]-
Precursor intensity: 7751421.293701
m/z	relative intensity	assigned
65.0397	3	C5H5-
67.019	1	C4H3O-
78.0349	1	C5H4N-
81.0346	5	C5H5O-
90.035	7	C6H4N-
91.019	17	C6H3O-
95.0137	1	C5H3O2-
107.0377	336	C6H5NO-
108.0455	999	C6H6NO-
132.0455	2	C8H6NO-
134.0249	1	C7H4NO2-
