Mass spectrum: Levothyroxine; LC-ESI-QFT; MS2; CE: 15; R=17500; [M-H]-
Name: Levothyroxine
Name: (2S)-2-amino-3-[4-(4-hydroxy-3,5-diiodophenoxy)-3,5-diiodophenyl]propanoic acid
Formula: C15H11I4NO4
Exact mass: 776.6867
SMILES: N[C@@H](CC1=CC(I)=C(OC2=CC(I)=C(O)C(I)=C2)C(I)=C1)C(O)=O
InChI: InChI=1S/C15H11I4NO4/c16-8-4-7(5-9(17)13(8)21)24-14-10(18)1-6(2-11(14)19)3-12(20)15(22)23/h1-2,4-5,12,21H,3,20H2,(H,22,23)/t12-/m0/s1
Instrument: Q Exactive Orbitrap (Thermo Scientific)
Instrument type: LC-ESI-QFT
Ms type: MS2
Ion mode: NEGATIVE
Ionization: ESI
Fragmentation mode: HCD
Collision energy: 15
Resolution: 17500
Column name: Acquity BEH C18 1.7um, 2.1x150mm (Waters)
Retention time: 17.024 min
Base peak: 221.1183
Precursor m/z: 775.6794
Precursor type: [M-H]-
Precursor intensity: 678158.5625
m/z	relative intensity	assigned
72.0091	51	C2H2NO2-
126.9051	999	I-
476.8734	14	C14H9I2NO2-
574.7512	89	C13H6I3O2-
588.7676	9	C14H8I3O2-
