Mass spectrum: Naphthalene-2-sulfonic acid; LC-ESI-QFT; MS2; CE: 75; R=17500; [M-H]-
Name: Naphthalene-2-sulfonic acid
Name: 2-Naphthalenesulfonic acid
Formula: C10H8O3S
Exact mass: 208.0194
SMILES: OS(=O)(=O)C1=CC2=C(C=CC=C2)C=C1
InChI: InChI=1S/C10H8O3S/c11-14(12,13)10-6-5-8-3-1-2-4-9(8)7-10/h1-7H,(H,11,12,13)
Instrument: Q Exactive Orbitrap (Thermo Scientific)
Instrument type: LC-ESI-QFT
Ms type: MS2
Ion mode: NEGATIVE
Ionization: ESI
Fragmentation mode: HCD
Collision energy: 75
Resolution: 17500
Column name: Acquity BEH C18 1.7um, 2.1x150mm (Waters)
Retention time: 13.442 min
Base peak: 207.0121
Precursor m/z: 207.0121
Precursor type: [M-H]-
Precursor intensity: 9423346.584961
m/z	relative intensity	assigned
63.0241	3	C5H3-
79.9574	999	O3S-
80.9652	23	HO3S-
83.0139	1	C4H3O2-
107.0138	1	C6H3O2-
115.0553	108	C9H7-
117.0346	1	C8H5O-
143.0502	944	C10H7O-
207.0121	86	C10H7O3S-
