Mass spectrum: 2-Acetamidophenol; LC-ESI-QFT; MS2; CE: 15; R=17500; [M+H]+
Name: 2-Acetamidophenol
Name: N-(2-hydroxyphenyl)acetamide
Formula: C8H9NO2
Exact mass: 151.0633
SMILES: CC(=O)NC1=C(O)C=CC=C1
InChI: InChI=1S/C8H9NO2/c1-6(10)9-7-4-2-3-5-8(7)11/h2-5,11H,1H3,(H,9,10)
Instrument: Q Exactive Orbitrap (Thermo Scientific)
Instrument type: LC-ESI-QFT
Ms type: MS2
Ion mode: POSITIVE
Ionization: ESI
Fragmentation mode: HCD
Collision energy: 15
Resolution: 17500
Column name: Acquity BEH C18 1.7um, 2.1x150mm (Waters)
Retention time: 8.041 min
Base peak: 79.0211
Precursor m/z: 152.0706
Precursor type: [M+H]+
Precursor intensity: 3482883.21875
m/z	relative intensity	assigned
65.0387	1	C5H5+
82.0651	1	C5H8N+
92.0495	3	C6H6N+
93.0336	1	C6H5O+
110.0601	534	C6H8NO+
111.044	8	C6H7O2+
134.06	15	C8H8NO+
152.0706	999	C8H10NO2+
