Mass spectrum: Aminocarb; LC-ESI-QFT; MS2; CE: 60; R=17500; [M+H]+
Name: Aminocarb
Name: [4-(dimethylamino)-3-methylphenyl] N-methylcarbamate
Formula: C11H16N2O2
Exact mass: 208.1212
SMILES: CNC(=O)OC1=CC(C)=C(C=C1)N(C)C
InChI: InChI=1S/C11H16N2O2/c1-8-7-9(15-11(14)12-2)5-6-10(8)13(3)4/h5-7H,1-4H3,(H,12,14)
Instrument: Q Exactive Orbitrap (Thermo Scientific)
Instrument type: LC-ESI-QFT
Ms type: MS2
Ion mode: POSITIVE
Ionization: ESI
Fragmentation mode: HCD
Collision energy: 60
Resolution: 17500
Column name: Acquity BEH C18 1.7um, 2.1x150mm (Waters)
Retention time: 6.100 min
Base peak: 79.0211
Precursor m/z: 209.1285
Precursor type: [M+H]+
Precursor intensity: 9263659.375
m/z	relative intensity	assigned
120.0569	4	C8H8O+
121.0648	4	C8H9O+
122.06	25	C7H8NO+
136.0758	12	C8H10NO+
137.0835	999	C8H11NO+
152.1069	141	C9H14NO+
