Mass spectrum: 4-Dimethylaminoantipyrine; LC-ESI-QFT; MS2; CE: 60; R=17500; [M-H]-
Name: 4-Dimethylaminoantipyrine
Name: Aminopyrine
Name: 4-(dimethylamino)-1,5-dimethyl-2-phenylpyrazol-3-one
Formula: C13H17N3O
Exact mass: 231.1372
SMILES: CN(C)C1=C(C)N(C)N(C1=O)C1=CC=CC=C1
InChI: InChI=1S/C13H17N3O/c1-10-12(14(2)3)13(17)16(15(10)4)11-8-6-5-7-9-11/h5-9H,1-4H3
Instrument: Q Exactive Orbitrap (Thermo Scientific)
Instrument type: LC-ESI-QFT
Ms type: MS2
Ion mode: NEGATIVE
Ionization: ESI
Fragmentation mode: HCD
Collision energy: 60
Resolution: 17500
Column name: Acquity BEH C18 1.7um, 2.1x150mm (Waters)
Retention time: 13.593 min
Base peak: 249.0227
Precursor m/z: 230.1299
Precursor type: [M-H]-
Precursor intensity: 2676388.630859
m/z	relative intensity	assigned
117.0457	2	C7H5N2-
119.0611	1	C7H7N2-
147.0562	5	C8H7N2O-
172.0514	5	C9H6N3O-
186.0673	252	C10H8N3O-
187.0751	999	C10H9N3O-
188.083	6	C10H10N3O-
200.0829	104	C11H10N3O-
215.1063	13	C12H13N3O-
230.13	2	C13H16N3O-
