Mass spectrum: Aminocarb; LC-ESI-QFT; MS2; CE: 90; R=17500; [M+H]+
Name: Aminocarb
Name: [4-(dimethylamino)-3-methylphenyl] N-methylcarbamate
Formula: C11H16N2O2
Exact mass: 208.1212
SMILES: CNC(=O)OC1=CC(C)=C(C=C1)N(C)C
InChI: InChI=1S/C11H16N2O2/c1-8-7-9(15-11(14)12-2)5-6-10(8)13(3)4/h5-7H,1-4H3,(H,12,14)
Instrument: Q Exactive Orbitrap (Thermo Scientific)
Instrument type: LC-ESI-QFT
Ms type: MS2
Ion mode: POSITIVE
Ionization: ESI
Fragmentation mode: HCD
Collision energy: 90
Resolution: 17500
Column name: Acquity BEH C18 1.7um, 2.1x150mm (Waters)
Retention time: 6.100 min
Base peak: 79.0211
Precursor m/z: 209.1285
Precursor type: [M+H]+
Precursor intensity: 5869992.4375
m/z	relative intensity	assigned
67.0542	2	C5H7+
77.0386	1	C6H5+
79.0542	2	C6H7+
91.0542	6	C7H7+
92.062	10	C7H8+
93.0699	1	C7H9+
94.0651	13	C6H8N+
95.0492	7	C6H7O+
107.0491	5	C7H7O+
108.0569	12	C7H8O+
108.0808	7	C7H10N+
109.0886	3	C7H11N+
120.057	45	C8H8O+
120.0808	14	C8H10N+
121.0647	5	C8H9O+
122.06	608	C7H8NO+
136.0758	249	C8H10NO+
137.0835	999	C8H11NO+
138.0677	4	C8H10O2+
152.107	4	C9H14NO+
