Mass spectrum: 4-Dimethylaminoantipyrine; LC-ESI-QFT; MS2; CE: 45; R=17500; [M+H]+
Name: 4-Dimethylaminoantipyrine
Name: Aminopyrine
Name: 4-(dimethylamino)-1,5-dimethyl-2-phenylpyrazol-3-one
Formula: C13H17N3O
Exact mass: 231.1372
SMILES: CN(C)C1=C(C)N(C)N(C1=O)C1=CC=CC=C1
InChI: InChI=1S/C13H17N3O/c1-10-12(14(2)3)13(17)16(15(10)4)11-8-6-5-7-9-11/h5-9H,1-4H3
Instrument: Q Exactive Orbitrap (Thermo Scientific)
Instrument type: LC-ESI-QFT
Ms type: MS2
Ion mode: POSITIVE
Ionization: ESI
Fragmentation mode: HCD
Collision energy: 45
Resolution: 17500
Column name: Acquity BEH C18 1.7um, 2.1x150mm (Waters)
Retention time: 8.629 min
Base peak: 79.0211
Precursor m/z: 232.1444
Precursor type: [M+H]+
Precursor intensity: 19833132.48438
m/z	relative intensity	assigned
53.0388	1	C4H5+
54.0338	1	C3H4N+
55.0416	3	C3H5N+
55.0543	2	C4H7+
56.0495	669	C3H6N+
57.0572	4	C3H7N+
58.0651	856	C3H8N+
68.0494	9	C4H6N+
70.0651	534	C4H8N+
71.073	2	C4H9N+
72.0807	506	C4H10N+
74.06	2	C3H8NO+
79.0542	1	C6H7+
80.0493	2	C5H6N+
82.0651	70	C5H8N+
83.0603	9	C4H7N2+
84.0444	10	C4H6NO+
84.0681	19	C4H8N2+
84.0807	106	C5H10N+
85.0762	1	C4H9N2+
85.0885	4	C5H11N+
87.0917	32	C4H11N2+
94.0652	2	C6H8N+
96.0681	9	C5H8N2+
97.076	536	C5H9N2+
98.0838	999	C5H10N2+
99.0916	141	C5H11N2+
106.0651	128	C7H8N+
111.0916	836	C6H11N2+
112.0993	1	C6H12N2+
113.1072	683	C6H13N2+
115.0865	5	C5H11N2O+
118.065	89	C8H8N+
130.065	3	C9H8N+
132.0443	25	C8H6NO+
132.0806	4	C9H10N+
133.076	10	C8H9N2+
134.0598	7	C8H8NO+
139.0862	6	C7H11N2O+
144.0013	3	C12+
144.0807	2	C10H10N+
146.0598	19	C9H8NO+
147.0915	3	C9H11N2+
149.1073	41	C9H13N2+
158.06	7	C10H8NO+
159.0916	78	C10H11N2+
161.1073	2	C10H13N2+
171.9958	3	C13O+
173.0706	3	C10H9N2O+
173.1074	4	C11H13N2+
175.0865	13	C10H11N2O+
177.1022	43	C10H13N2O+
185.0708	4	C11H9N2O+
187.0864	14	C11H11N2O+
188.0942	14	C11H12N2O+
201.1019	5	C12H13N2O+
202.0972	10	C11H12N3O+
214.1336	2	C13H16N3+
216.1131	9	C12H14N3O+
217.1208	11	C12H15N3O+
232.1442	6	C13H18N3O+
