Mass spectrum: 2,2`-Dibenzoylaminodiphenyl disulfide; LC-ESI-QFT; MS2; CE: 60; R=17500; [M-H]-
Name: 2,2'-Dibenzoylaminodiphenyl disulfide
Name: N-[2-[(2-benzamidophenyl)disulfanyl]phenyl]benzamide
Formula: C26H20N2O2S2
Exact mass: 456.0966
SMILES: O=C(NC1=CC=CC=C1SSC1=C(NC(=O)C2=CC=CC=C2)C=CC=C1)C1=CC=CC=C1
InChI: InChI=1S/C26H20N2O2S2/c29-25(19-11-3-1-4-12-19)27-21-15-7-9-17-23(21)31-32-24-18-10-8-16-22(24)28-26(30)20-13-5-2-6-14-20/h1-18H,(H,27,29)(H,28,30)
Instrument: Q Exactive Orbitrap (Thermo Scientific)
Instrument type: LC-ESI-QFT
Ms type: MS2
Ion mode: NEGATIVE
Ionization: ESI
Fragmentation mode: HCD
Collision energy: 60
Resolution: 17500
Column name: Acquity BEH C18 1.7um, 2.1x150mm (Waters)
Retention time: 18.888 min
Base peak: 112.9857
Precursor m/z: 455.0893
Precursor type: [M-H]-
Precursor intensity: 2842718.870117
m/z	relative intensity	assigned
57.9756	13	CNS-
106.9962	16	C6H3S-
123.0148	56	C6H5NS-
134.007	999	C7H4NS-
150.0021	29	C7H4NOS-
210.0383	88	C13H8NS-
228.0489	710	C13H10NOS-
254.0281	15	C14H8NO2S-
