Mass spectrum: 2-Acetamidophenol; LC-ESI-QFT; MS2; CE: 60; R=17500; [M+H]+
Name: 2-Acetamidophenol
Name: N-(2-hydroxyphenyl)acetamide
Formula: C8H9NO2
Exact mass: 151.0633
SMILES: CC(=O)NC1=C(O)C=CC=C1
InChI: InChI=1S/C8H9NO2/c1-6(10)9-7-4-2-3-5-8(7)11/h2-5,11H,1H3,(H,9,10)
Instrument: Q Exactive Orbitrap (Thermo Scientific)
Instrument type: LC-ESI-QFT
Ms type: MS2
Ion mode: POSITIVE
Ionization: ESI
Fragmentation mode: HCD
Collision energy: 60
Resolution: 17500
Column name: Acquity BEH C18 1.7um, 2.1x150mm (Waters)
Retention time: 8.041 min
Base peak: 79.0211
Precursor m/z: 152.0706
Precursor type: [M+H]+
Precursor intensity: 3675773.21875
m/z	relative intensity	assigned
65.0385	53	C5H5+
67.0416	1	C4H5N+
67.0541	3	C5H7+
80.0494	1	C5H6N+
82.0651	27	C5H8N+
92.0495	72	C6H6N+
93.0335	43	C6H5O+
93.0574	3	C6H7N+
109.0524	4	C6H7NO+
110.0601	999	C6H8NO+
111.044	120	C6H7O2+
125.0595	1	C7H9O2+
134.06	17	C8H8NO+
152.0706	102	C8H10NO2+
