Mass spectrum: 4,4`-(9H-Fluorene-9,9-diyl)diphenol; LC-ESI-QFT; MS2; CE: 60; R=17500; [M-H]-
Name: 4,4'-(9H-Fluorene-9,9-diyl)diphenol
Name: 9,9-Bis(4-hydroxyphenyl)fluorene
Name: 4-[9-(4-hydroxyphenyl)fluoren-9-yl]phenol
Formula: C25H18O2
Exact mass: 350.1307
SMILES: OC1=CC=C(C=C1)C1(C2=C(C=CC=C2)C2=C1C=CC=C2)C1=CC=C(O)C=C1
InChI: InChI=1S/C25H18O2/c26-19-13-9-17(10-14-19)25(18-11-15-20(27)16-12-18)23-7-3-1-5-21(23)22-6-2-4-8-24(22)25/h1-16,26-27H
Instrument: Q Exactive Orbitrap (Thermo Scientific)
Instrument type: LC-ESI-QFT
Ms type: MS2
Ion mode: NEGATIVE
Ionization: ESI
Fragmentation mode: HCD
Collision energy: 60
Resolution: 17500
Column name: Acquity BEH C18 1.7um, 2.1x150mm (Waters)
Retention time: 18.574 min
Base peak: 281.1394
Precursor m/z: 349.1234
Precursor type: [M-H]-
Precursor intensity: 1766545.930664
m/z	relative intensity	assigned
65.0031	999	C4HO-
67.019	931	C4H3O-
68.9982	435	C3HO2-
69.0346	477	C4H5O-
71.0139	830	C3H3O2-
83.0139	834	C4H3O2-
