Mass spectrum: 4-Dimethylaminoantipyrine; LC-ESI-QFT; MS2; CE: 15; R=17500; [M+H]+
Name: 4-Dimethylaminoantipyrine
Name: Aminopyrine
Name: 4-(dimethylamino)-1,5-dimethyl-2-phenylpyrazol-3-one
Formula: C13H17N3O
Exact mass: 231.1372
SMILES: CN(C)C1=C(C)N(C)N(C1=O)C1=CC=CC=C1
InChI: InChI=1S/C13H17N3O/c1-10-12(14(2)3)13(17)16(15(10)4)11-8-6-5-7-9-11/h5-9H,1-4H3
Instrument: Q Exactive Orbitrap (Thermo Scientific)
Instrument type: LC-ESI-QFT
Ms type: MS2
Ion mode: POSITIVE
Ionization: ESI
Fragmentation mode: HCD
Collision energy: 15
Resolution: 17500
Column name: Acquity BEH C18 1.7um, 2.1x150mm (Waters)
Retention time: 8.629 min
Base peak: 79.0211
Precursor m/z: 232.1444
Precursor type: [M+H]+
Precursor intensity: 27410809.28125
m/z	relative intensity	assigned
56.0494	57	C3H6N+
58.0651	36	C3H8N+
70.0651	26	C4H8N+
72.0807	55	C4H10N+
82.0651	6	C5H8N+
83.0604	1	C4H7N2+
84.0807	17	C5H10N+
87.0917	23	C4H11N2+
97.076	21	C5H9N2+
98.0838	158	C5H10N2+
99.0916	78	C5H11N2+
100.0994	1	C5H12N2+
106.0651	11	C7H8N+
111.0917	385	C6H11N2+
112.0992	1	C6H12N2+
113.1072	999	C6H13N2+
118.065	18	C8H8N+
127.0865	12	C6H11N2O+
133.076	1	C8H9N2+
139.0865	67	C7H11N2O+
144.0806	1	C10H10N+
146.06	8	C9H8NO+
147.0918	4	C9H11N2+
149.1073	30	C9H13N2+
158.0599	1	C10H8NO+
159.0917	48	C10H11N2+
161.1072	1	C10H13N2+
171.9962	3	C13O+
173.1074	1	C11H13N2+
175.0866	15	C10H11N2O+
177.1022	24	C10H13N2O+
187.0866	79	C11H11N2O+
188.0944	21	C11H12N2O+
189.1019	2	C11H13N2O+
201.1022	4	C12H13N2O+
204.1495	7	C12H18N3+
214.1343	1	C13H16N3+
217.1212	11	C12H15N3O+
232.1443	656	C13H18N3O+
