Mass spectrum: 2,2`-Dibenzoylaminodiphenyl disulfide; LC-ESI-QFT; MS2; CE: 30; R=17500; [M+H]+
Name: 2,2'-Dibenzoylaminodiphenyl disulfide
Name: N-[2-[(2-benzamidophenyl)disulfanyl]phenyl]benzamide
Formula: C26H20N2O2S2
Exact mass: 456.0966
SMILES: O=C(NC1=CC=CC=C1SSC1=C(NC(=O)C2=CC=CC=C2)C=CC=C1)C1=CC=CC=C1
InChI: InChI=1S/C26H20N2O2S2/c29-25(19-11-3-1-4-12-19)27-21-15-7-9-17-23(21)31-32-24-18-10-8-16-22(24)28-26(30)20-13-5-2-6-14-20/h1-18H,(H,27,29)(H,28,30)
Instrument: Q Exactive Orbitrap (Thermo Scientific)
Instrument type: LC-ESI-QFT
Ms type: MS2
Ion mode: POSITIVE
Ionization: ESI
Fragmentation mode: HCD
Collision energy: 30
Resolution: 17500
Column name: Acquity BEH C18 1.7um, 2.1x150mm (Waters)
Retention time: 15.317 min
Base peak: 79.0211
Precursor m/z: 457.1039
Precursor type: [M+H]+
Precursor intensity: 19788928
m/z	relative intensity	assigned
55.0542	1	C4H7+
56.0495	36	C3H6N+
67.0542	1	C5H7+
68.0494	2	C4H6N+
69.0698	1	C5H9+
70.0651	9	C4H8N+
79.0541	1	C6H7+
81.0698	2	C6H9+
82.0651	11	C5H8N+
83.0854	1	C6H11+
84.0807	1	C5H10N+
91.0542	34	C7H7+
95.0855	3	C7H11+
96.0807	5	C6H10N+
105.0698	7	C8H9+
108.0807	3	C7H10N+
109.0885	4	C7H11N+
115.0542	1	C9H7+
117.0698	9	C9H9+
129.0698	10	C10H9+
131.0855	11	C10H11+
132.0806	3	C9H10N+
141.0698	6	C11H9+
143.0856	2	C11H11+
145.1012	4	C11H13+
146.0963	2	C10H12N+
155.0855	4	C12H11+
157.1011	32	C12H13+
158.0964	9	C11H12N+
169.1012	2	C13H13+
172.1121	1	C12H14N+
173.1322	2	C13H17+
183.1167	7	C14H15+
198.128	1	C14H16N+
200.1433	591	C14H18N+
240.9425	4	C12HO2S2+
457.1056	999	C26H21N2O2S2+
