Mass spectrum: 2,2`-Dibenzoylaminodiphenyl disulfide; LC-ESI-QFT; MS2; CE: 60; R=17500; [M+H]+
Name: 2,2'-Dibenzoylaminodiphenyl disulfide
Name: N-[2-[(2-benzamidophenyl)disulfanyl]phenyl]benzamide
Formula: C26H20N2O2S2
Exact mass: 456.0966
SMILES: O=C(NC1=CC=CC=C1SSC1=C(NC(=O)C2=CC=CC=C2)C=CC=C1)C1=CC=CC=C1
InChI: InChI=1S/C26H20N2O2S2/c29-25(19-11-3-1-4-12-19)27-21-15-7-9-17-23(21)31-32-24-18-10-8-16-22(24)28-26(30)20-13-5-2-6-14-20/h1-18H,(H,27,29)(H,28,30)
Instrument: Q Exactive Orbitrap (Thermo Scientific)
Instrument type: LC-ESI-QFT
Ms type: MS2
Ion mode: POSITIVE
Ionization: ESI
Fragmentation mode: HCD
Collision energy: 60
Resolution: 17500
Column name: Acquity BEH C18 1.7um, 2.1x150mm (Waters)
Retention time: 15.317 min
Base peak: 79.0211
Precursor m/z: 457.1039
Precursor type: [M+H]+
Precursor intensity: 18347612.75
m/z	relative intensity	assigned
51.0229	1	C4H3+
53.0022	2	C3HO+
53.0386	6	C4H5+
54.0338	1	C3H4N+
55.0542	78	C4H7+
56.0495	72	C3H6N+
58.0651	5	C3H8N+
63.0229	1	C5H3+
65.0385	21	C5H5+
67.0416	8	C4H5N+
67.0542	38	C5H7+
68.0494	35	C4H6N+
69.0573	2	C4H7N+
69.0698	25	C5H9+
70.0651	105	C4H8N+
77.0385	1	C6H5+
79.0542	39	C6H7+
80.0494	24	C5H6N+
81.0573	9	C5H7N+
81.0699	34	C6H9+
82.0651	177	C5H8N+
83.0729	6	C5H9N+
83.0855	1	C6H11+
84.0808	30	C5H10N+
91.0542	999	C7H7+
93.0573	1	C6H7N+
93.0699	17	C7H9+
94.0651	23	C6H8N+
95.0491	5	C6H7O+
95.0729	4	C6H9N+
95.0855	23	C7H11+
96.0807	102	C6H10N+
98.0965	5	C6H12N+
103.0542	14	C8H7+
104.0495	1	C7H6N+
104.062	4	C8H8+
105.0699	130	C8H9+
106.0651	5	C7H8N+
107.073	1	C7H9N+
108.0808	62	C7H10N+
109.0886	87	C7H11N+
115.0542	81	C9H7+
116.062	5	C9H8+
117.0698	163	C9H9+
118.065	5	C8H8N+
119.0853	1	C9H11+
120.0808	3	C8H10N+
122.0963	6	C8H12N+
128.062	27	C10H8+
129.0698	280	C10H9+
130.0651	32	C9H8N+
130.0772	3	C2H14N2O2S+
131.0736	6	C9H9N+
131.0855	117	C10H11+
132.0807	50	C9H10N+
141.0698	47	C11H9+
142.0777	17	C11H10+
143.073	7	C10H9N+
143.0855	49	C11H11+
144.0807	31	C10H10N+
145.065	1	C10H9O+
145.0886	4	C10H11N+
145.1011	8	C11H13+
146.0963	34	C10H12N+
153.0698	2	C12H9+
154.0776	8	C12H10+
155.0606	2	C10H7N2+
155.0855	35	C12H11+
156.0809	7	C11H10N+
156.093	3	C4H16N2O2S+
157.0889	2	C11H11N+
157.1011	33	C12H13+
158.0964	66	C11H12N+
159.1042	12	C11H13N+
168.0808	2	C12H10N+
168.0932	4	C13H12+
169.0886	4	C12H11N+
169.1011	5	C13H13+
170.0964	20	C12H12N+
171.1042	100	C12H13N+
172.1119	14	C12H14N+
173.1324	1	C13H17+
183.1167	3	C14H15+
184.112	5	C13H14N+
185.12	4	C13H15N+
198.1278	31	C14H16N+
200.1433	180	C14H18N+
212.9479	15	C11HOS2+
240.9428	198	C12HO2S2+
257.9699	1	C12H4NO2S2+
