Mass spectrum: 4-Dimethylaminoantipyrine; LC-ESI-QFT; MS2; CE: 75; R=17500; [M-H]-
Name: 4-Dimethylaminoantipyrine
Name: Aminopyrine
Name: 4-(dimethylamino)-1,5-dimethyl-2-phenylpyrazol-3-one
Formula: C13H17N3O
Exact mass: 231.1372
SMILES: CN(C)C1=C(C)N(C)N(C1=O)C1=CC=CC=C1
InChI: InChI=1S/C13H17N3O/c1-10-12(14(2)3)13(17)16(15(10)4)11-8-6-5-7-9-11/h5-9H,1-4H3
Instrument: Q Exactive Orbitrap (Thermo Scientific)
Instrument type: LC-ESI-QFT
Ms type: MS2
Ion mode: NEGATIVE
Ionization: ESI
Fragmentation mode: HCD
Collision energy: 75
Resolution: 17500
Column name: Acquity BEH C18 1.7um, 2.1x150mm (Waters)
Retention time: 13.593 min
Base peak: 249.0227
Precursor m/z: 230.1299
Precursor type: [M-H]-
Precursor intensity: 1955560.980469
m/z	relative intensity	assigned
117.0458	12	C7H5N2-
119.0612	7	C7H7N2-
147.0566	17	C8H7N2O-
159.0564	3	C9H7N2O-
172.0518	11	C9H6N3O-
186.0673	999	C10H8N3O-
187.0751	608	C10H9N3O-
200.083	183	C11H10N3O-
