Mass spectrum: Aminocarb; LC-ESI-QFT; MS2; CE: 15; R=17500; [M-H]-
Name: Aminocarb
Name: [4-(dimethylamino)-3-methylphenyl] N-methylcarbamate
Formula: C11H16N2O2
Exact mass: 208.1212
SMILES: CNC(=O)OC1=CC(C)=C(C=C1)N(C)C
InChI: InChI=1S/C11H16N2O2/c1-8-7-9(15-11(14)12-2)5-6-10(8)13(3)4/h5-7H,1-4H3,(H,12,14)
Instrument: Q Exactive Orbitrap (Thermo Scientific)
Instrument type: LC-ESI-QFT
Ms type: MS2
Ion mode: NEGATIVE
Ionization: ESI
Fragmentation mode: HCD
Collision energy: 15
Resolution: 17500
Column name: Acquity BEH C18 1.7um, 2.1x150mm (Waters)
Retention time: 14.528 min
Base peak: 183.0047
Precursor m/z: 207.1139
Precursor type: [M-H]-
Precursor intensity: 515164.6181641
m/z	relative intensity	assigned
108.0455	999	C6H6NO-
