Mass spectrum: 4-Dimethylaminoantipyrine; LC-ESI-QFT; MS2; CE: 90; R=17500; [M+H]+
Name: 4-Dimethylaminoantipyrine
Name: Aminopyrine
Name: 4-(dimethylamino)-1,5-dimethyl-2-phenylpyrazol-3-one
Formula: C13H17N3O
Exact mass: 231.1372
SMILES: CN(C)C1=C(C)N(C)N(C1=O)C1=CC=CC=C1
InChI: InChI=1S/C13H17N3O/c1-10-12(14(2)3)13(17)16(15(10)4)11-8-6-5-7-9-11/h5-9H,1-4H3
Instrument: Q Exactive Orbitrap (Thermo Scientific)
Instrument type: LC-ESI-QFT
Ms type: MS2
Ion mode: POSITIVE
Ionization: ESI
Fragmentation mode: HCD
Collision energy: 90
Resolution: 17500
Column name: Acquity BEH C18 1.7um, 2.1x150mm (Waters)
Retention time: 8.629 min
Base peak: 79.0211
Precursor m/z: 232.1444
Precursor type: [M+H]+
Precursor intensity: 23138851.15625
m/z	relative intensity	assigned
53.0386	13	C4H5+
54.0339	5	C3H4N+
55.0417	14	C3H5N+
55.0543	6	C4H7+
56.0495	999	C3H6N+
57.0573	18	C3H7N+
58.0652	845	C3H8N+
65.0386	3	C5H5+
67.0416	7	C4H5N+
68.0495	14	C4H6N+
69.0446	3	C3H5N2+
70.0651	313	C4H8N+
71.0729	2	C4H9N+
72.0808	171	C4H10N+
74.06	2	C3H8NO+
77.0385	4	C6H5+
79.0543	19	C6H7+
80.0495	4	C5H6N+
81.0448	2	C4H5N2+
82.0651	21	C5H8N+
83.0604	31	C4H7N2+
84.0445	5	C4H6NO+
84.0682	8	C4H8N2+
84.0808	19	C5H10N+
85.076	1	C4H9N2+
85.0887	2	C5H11N+
87.0917	3	C4H11N2+
91.0543	10	C7H7+
92.0495	4	C6H6N+
94.0653	3	C6H8N+
95.0492	35	C6H7O+
96.0684	6	C5H8N2+
97.0761	900	C5H9N2+
98.0839	48	C5H10N2+
99.0919	1	C5H11N2+
104.0496	15	C7H6N+
105.0448	15	C6H5N2+
106.0652	92	C7H8N+
111.0917	49	C6H11N2+
113.1074	3	C6H13N2+
115.0542	2	C9H7+
117.0574	6	C8H7N+
118.0652	21	C8H8N+
128.0495	6	C9H6N+
130.0652	8	C9H8N+
132.0445	6	C8H6NO+
132.0808	13	C9H10N+
133.0761	2	C8H9N2+
134.0601	2	C8H8NO+
146.0602	5	C9H8NO+
147.0919	2	C9H11N2+
159.092	4	C10H11N2+
171.0553	1	C10H7N2O+
185.071	1	C11H9N2O+
