Mass spectrum: Tetradecanoic acid; LC-ESI-QFT; MS2; CE: 60; R=17500; [M-H]-
Name: Tetradecanoic acid
Name: Myristic acid
Formula: C14H28O2
Exact mass: 228.2089
SMILES: CCCCCCCCCCCCCC(O)=O
InChI: InChI=1S/C14H28O2/c1-2-3-4-5-6-7-8-9-10-11-12-13-14(15)16/h2-13H2,1H3,(H,15,16)
Instrument: Q Exactive Orbitrap (Thermo Scientific)
Instrument type: LC-ESI-QFT
Ms type: MS2
Ion mode: NEGATIVE
Ionization: ESI
Fragmentation mode: HCD
Collision energy: 60
Resolution: 17500
Column name: Acquity BEH C18 1.7um, 2.1x150mm (Waters)
Retention time: 21.241 min
Base peak: 112.9856
Precursor m/z: 227.2017
Precursor type: [M-H]-
Precursor intensity: 367032.5644531
m/z	relative intensity	assigned
227.2014	999	C14H27O2-
