Mass spectrum: 2-Acetamidophenol; LC-ESI-QFT; MS2; CE: 15; R=17500; [M-H]-
Name: 2-Acetamidophenol
Name: N-(2-hydroxyphenyl)acetamide
Formula: C8H9NO2
Exact mass: 151.0633
SMILES: CC(=O)NC1=C(O)C=CC=C1
InChI: InChI=1S/C8H9NO2/c1-6(10)9-7-4-2-3-5-8(7)11/h2-5,11H,1H3,(H,9,10)
Instrument: Q Exactive Orbitrap (Thermo Scientific)
Instrument type: LC-ESI-QFT
Ms type: MS2
Ion mode: NEGATIVE
Ionization: ESI
Fragmentation mode: HCD
Collision energy: 15
Resolution: 17500
Column name: Acquity BEH C18 1.7um, 2.1x150mm (Waters)
Retention time: 10.804 min
Base peak: 108.0455
Precursor m/z: 150.0561
Precursor type: [M-H]-
Precursor intensity: 6024512.645508
m/z	relative intensity	assigned
107.0377	1	C6H5NO-
108.0454	999	C6H6NO-
132.0454	5	C8H6NO-
150.056	45	C8H8NO2-
