Mass spectrum: 2,4,5-Trichlorophenol; LC-ESI-QFT; MS2; CE: 30; R=17500; [M-H]-
Name: 2,4,5-Trichlorophenol
Formula: C6H3Cl3O
Exact mass: 195.9249
SMILES: OC1=C(Cl)C=C(Cl)C(Cl)=C1
InChI: InChI=1S/C6H3Cl3O/c7-3-1-5(9)6(10)2-4(3)8/h1-2,10H
Instrument: Q Exactive Orbitrap (Thermo Scientific)
Instrument type: LC-ESI-QFT
Ms type: MS2
Ion mode: NEGATIVE
Ionization: ESI
Fragmentation mode: HCD
Collision energy: 30
Resolution: 17500
Column name: Acquity BEH C18 1.7um, 2.1x150mm (Waters)
Retention time: 18.623 min
Base peak: 281.1394
Precursor m/z: 194.9177
Precursor type: [M-H]-
Precursor intensity: 3588019.796875
m/z	relative intensity	assigned
158.941	254	C6HCl2O-
194.9177	999	C6H2Cl3O-
