Mass spectrum: 4-Dimethylaminoantipyrine; LC-ESI-QFT; MS2; CE: 75; R=17500; [M+H]+
Name: 4-Dimethylaminoantipyrine
Name: Aminopyrine
Name: 4-(dimethylamino)-1,5-dimethyl-2-phenylpyrazol-3-one
Formula: C13H17N3O
Exact mass: 231.1372
SMILES: CN(C)C1=C(C)N(C)N(C1=O)C1=CC=CC=C1
InChI: InChI=1S/C13H17N3O/c1-10-12(14(2)3)13(17)16(15(10)4)11-8-6-5-7-9-11/h5-9H,1-4H3
Instrument: Q Exactive Orbitrap (Thermo Scientific)
Instrument type: LC-ESI-QFT
Ms type: MS2
Ion mode: POSITIVE
Ionization: ESI
Fragmentation mode: HCD
Collision energy: 75
Resolution: 17500
Column name: Acquity BEH C18 1.7um, 2.1x150mm (Waters)
Retention time: 8.629 min
Base peak: 79.0211
Precursor m/z: 232.1444
Precursor type: [M+H]+
Precursor intensity: 26250524.875
m/z	relative intensity	assigned
53.0386	7	C4H5+
54.0339	2	C3H4N+
55.0416	8	C3H5N+
55.0542	5	C4H7+
56.0495	943	C3H6N+
57.0573	13	C3H7N+
58.0651	999	C3H8N+
65.0386	1	C5H5+
67.0416	7	C4H5N+
68.0495	11	C4H6N+
69.0447	3	C3H5N2+
70.0651	476	C4H8N+
71.0728	2	C4H9N+
72.0807	268	C4H10N+
74.06	3	C3H8NO+
77.0385	2	C6H5+
79.0542	13	C6H7+
80.0495	4	C5H6N+
81.0448	1	C4H5N2+
82.0651	44	C5H8N+
83.0603	26	C4H7N2+
84.0444	12	C4H6NO+
84.0682	12	C4H8N2+
84.0808	37	C5H10N+
85.076	1	C4H9N2+
85.0886	3	C5H11N+
87.0917	8	C4H11N2+
91.0542	4	C7H7+
92.0494	2	C6H6N+
94.0651	3	C6H8N+
95.0492	22	C6H7O+
96.0683	8	C5H8N2+
97.076	939	C5H9N2+
98.0838	170	C5H10N2+
99.0916	7	C5H11N2+
104.0495	10	C7H6N+
105.0447	8	C6H5N2+
106.0651	112	C7H8N+
111.0916	133	C6H11N2+
113.1072	20	C6H13N2+
115.0539	1	C9H7+
117.0571	3	C8H7N+
118.0651	37	C8H8N+
128.0493	5	C9H6N+
130.0651	10	C9H8N+
131.073	2	C9H9N+
132.0443	12	C8H6NO+
132.0807	13	C9H10N+
133.0762	6	C8H9N2+
134.0601	5	C8H8NO+
144.0014	1	C12+
144.0808	1	C10H10N+
146.0599	9	C9H8NO+
147.0918	2	C9H11N2+
149.1075	4	C9H13N2+
159.0917	16	C10H11N2+
171.0552	1	C10H7N2O+
173.0711	2	C10H9N2O+
175.0869	2	C10H11N2O+
185.0708	7	C11H9N2O+
199.0865	3	C12H11N2O+
202.0972	2	C11H12N3O+
216.1128	3	C12H14N3O+
