Mass spectrum: Ciprofibrate; LC-ESI-QFT; MS2; CE: 15; R=17500; [M-H]-
Name: Ciprofibrate
Name: 2-[4-(2,2-dichlorocyclopropyl)phenoxy]-2-methylpropanoic acid
Formula: C13H14Cl2O3
Exact mass: 288.0320
SMILES: CC(C)(OC1=CC=C(C=C1)C1CC1(Cl)Cl)C(O)=O
InChI: InChI=1S/C13H14Cl2O3/c1-12(2,11(16)17)18-9-5-3-8(4-6-9)10-7-13(10,14)15/h3-6,10H,7H2,1-2H3,(H,16,17)
Instrument: Q Exactive Orbitrap (Thermo Scientific)
Instrument type: LC-ESI-QFT
Ms type: MS2
Ion mode: NEGATIVE
Ionization: ESI
Fragmentation mode: HCD
Collision energy: 15
Resolution: 17500
Column name: Acquity BEH C18 1.7um, 2.1x150mm (Waters)
Retention time: 18.091 min
Base peak: 203.013
Precursor m/z: 287.0247
Precursor type: [M-H]-
Precursor intensity: 19945254.3916
m/z	relative intensity	assigned
85.0295	999	C4H5O2-
200.9879	54	C9H7Cl2O-
