Mass spectrum: 4-Dimethylaminoantipyrine; LC-ESI-QFT; MS2; CE: 30; R=17500; [M+H]+
Name: 4-Dimethylaminoantipyrine
Name: Aminopyrine
Name: 4-(dimethylamino)-1,5-dimethyl-2-phenylpyrazol-3-one
Formula: C13H17N3O
Exact mass: 231.1372
SMILES: CN(C)C1=C(C)N(C)N(C1=O)C1=CC=CC=C1
InChI: InChI=1S/C13H17N3O/c1-10-12(14(2)3)13(17)16(15(10)4)11-8-6-5-7-9-11/h5-9H,1-4H3
Instrument: Q Exactive Orbitrap (Thermo Scientific)
Instrument type: LC-ESI-QFT
Ms type: MS2
Ion mode: POSITIVE
Ionization: ESI
Fragmentation mode: HCD
Collision energy: 30
Resolution: 17500
Column name: Acquity BEH C18 1.7um, 2.1x150mm (Waters)
Retention time: 8.629 min
Base peak: 79.0211
Precursor m/z: 232.1444
Precursor type: [M+H]+
Precursor intensity: 27889324.59375
m/z	relative intensity	assigned
56.0495	140	C3H6N+
58.0651	124	C3H8N+
68.0495	2	C4H6N+
70.065	88	C4H8N+
72.0807	142	C4H10N+
82.0651	19	C5H8N+
83.0603	2	C4H7N2+
84.0682	3	C4H8N2+
84.0808	42	C5H10N+
85.076	1	C4H9N2+
87.0916	22	C4H11N2+
96.068	1	C5H8N2+
97.076	72	C5H9N2+
98.0838	369	C5H10N2+
99.0916	110	C5H11N2+
100.0994	1	C5H12N2+
106.0651	30	C7H8N+
111.0916	565	C6H11N2+
112.0995	1	C6H12N2+
113.1072	999	C6H13N2+
115.0865	1	C5H11N2O+
118.065	34	C8H8N+
127.0865	7	C6H11N2O+
132.0443	3	C8H6NO+
133.076	3	C8H9N2+
134.0603	1	C8H8NO+
139.0865	34	C7H11N2O+
144.0807	2	C10H10N+
146.06	10	C9H8NO+
147.0917	4	C9H11N2+
149.1072	30	C9H13N2+
158.0601	3	C10H8NO+
159.0916	52	C10H11N2+
161.1071	1	C10H13N2+
171.9962	2	C13O+
173.1074	1	C11H13N2+
175.0865	14	C10H11N2O+
177.1022	37	C10H13N2O+
187.0865	47	C11H11N2O+
188.0943	19	C11H12N2O+
189.1025	1	C11H13N2O+
201.1019	4	C12H13N2O+
204.1496	3	C12H18N3+
214.1337	4	C13H16N3+
216.113	2	C12H14N3O+
217.1209	13	C12H15N3O+
232.1443	148	C13H18N3O+
