Mass spectrum: 6-Pentyl-2H-pyran-2-one; LC-ESI-QFT; MS2; CE: 15; R=17500; [M+H]+
Name: 6-Pentyl-2H-pyran-2-one
Name: 6-pentylpyran-2-one
Formula: C10H14O2
Exact mass: 166.0994
SMILES: CCCCCC1=CC=CC(=O)O1
InChI: InChI=1S/C10H14O2/c1-2-3-4-6-9-7-5-8-10(11)12-9/h5,7-8H,2-4,6H2,1H3
Instrument: Q Exactive Orbitrap (Thermo Scientific)
Instrument type: LC-ESI-QFT
Ms type: MS2
Ion mode: POSITIVE
Ionization: ESI
Fragmentation mode: HCD
Collision energy: 15
Resolution: 17500
Column name: Acquity BEH C18 1.7um, 2.1x150mm (Waters)
Retention time: 16.672 min
Base peak: 79.0211
Precursor m/z: 167.1067
Precursor type: [M+H]+
Precursor intensity: 1164110.25
m/z	relative intensity	assigned
55.0179	3	C3H3O+
55.0542	6	C4H7+
57.0334	2	C3H5O+
65.0386	1	C5H5+
67.0542	25	C5H7+
69.0335	2	C4H5O+
69.0699	4	C5H9+
79.0542	14	C6H7+
81.0698	17	C6H9+
83.0492	15	C5H7O+
93.0335	4	C6H5O+
93.07	19	C7H9+
95.0491	2	C6H7O+
95.0855	2	C7H11+
97.0284	33	C5H5O2+
97.0649	2	C6H9O+
107.0491	9	C7H7O+
107.0855	5	C8H11+
111.0441	7	C6H7O2+
121.1012	7	C9H13+
125.0596	2	C7H9O2+
125.0959	1	C8H13O+
131.0857	6	C10H11+
139.112	3	C9H15O+
149.0962	2	C10H13O+
167.1067	999	C10H15O2+
