Mass spectrum: 2`,4`,5`-Trihydroxybutyrophenone; LC-ESI-QFT; MS2; CE: 75; R=17500; [M+H]+
Name: 2',4',5'-Trihydroxybutyrophenone
Name: 2,4,5-Trihydroxybutyrophenone
Name: 1-(2,4,5-trihydroxyphenyl)butan-1-one
Formula: C10H12O4
Exact mass: 196.0736
SMILES: CCCC(=O)C1=CC(O)=C(O)C=C1O
InChI: InChI=1S/C10H12O4/c1-2-3-7(11)6-4-9(13)10(14)5-8(6)12/h4-5,12-14H,2-3H2,1H3
Instrument: Q Exactive Orbitrap (Thermo Scientific)
Instrument type: LC-ESI-QFT
Ms type: MS2
Ion mode: POSITIVE
Ionization: ESI
Fragmentation mode: HCD
Collision energy: 75
Resolution: 17500
Column name: Acquity BEH C18 1.7um, 2.1x150mm (Waters)
Retention time: 14.071 min
Base peak: 79.0212
Precursor m/z: 197.0808
Precursor type: [M+H]+
Precursor intensity: 2499037.5
m/z	relative intensity	assigned
51.0229	3	C4H3+
53.0021	4	C3HO+
53.0386	27	C4H5+
55.0179	13	C3H3O+
55.0542	20	C4H7+
65.0385	117	C5H5+
66.0464	34	C5H6+
67.0542	40	C5H7+
68.0256	8	C4H4O+
68.9971	20	C3HO2+
69.0335	15	C4H5O+
77.0384	8	C6H5+
78.0464	56	C6H6+
79.018	9	C5H3O+
79.0542	55	C6H7+
81.0336	24	C5H5O+
81.0699	25	C6H9+
83.0491	80	C5H7O+
85.0282	3	C4H5O2+
91.0542	6	C7H7+
92.0256	9	C6H4O+
93.0335	52	C6H5O+
94.0413	39	C6H6O+
95.0492	272	C6H7O+
96.0206	6	C5H4O2+
96.057	66	C6H8O+
97.0283	26	C5H5O2+
97.0649	31	C6H9O+
105.0336	8	C7H5O+
107.0128	21	C6H3O2+
107.0491	16	C7H7O+
108.057	74	C7H8O+
109.0284	70	C6H5O2+
109.0648	177	C7H9O+
110.0363	16	C6H6O2+
111.0441	625	C6H7O2+
121.0286	29	C7H5O2+
122.0363	50	C7H6O2+
123.044	999	C7H7O2+
124.0519	127	C7H8O2+
125.0231	7	C6H5O3+
125.0597	137	C7H9O2+
126.0675	54	C7H10O2+
135.0443	7	C8H7O2+
137.0235	7	C7H5O3+
137.0599	22	C8H9O2+
138.0676	786	C8H10O2+
139.039	742	C7H7O3+
139.0754	78	C8H11O2+
149.0236	4	C8H5O3+
151.039	7	C8H7O3+
152.047	3	C8H8O3+
153.0547	44	C8H9O3+
154.0625	243	C8H10O3+
167.0339	328	C8H7O4+
167.0698	16	C9H11O3+
168.078	6	C9H12O3+
169.0857	32	C9H13O3+
181.0494	8	C9H9O4+
182.0574	23	C9H10O4+
