Mass spectrum: Chlorpromazine; LC-ESI-QFT; MS2; CE: 60; R=17500; [M+H]+
Name: Chlorpromazine
Name: 3-(2-chlorophenothiazin-10-yl)-N,N-dimethylpropan-1-amine
Formula: C17H19ClN2S
Exact mass: 318.0957
SMILES: CN(C)CCCN1C2=C(SC3=C1C=C(Cl)C=C3)C=CC=C2
InChI: InChI=1S/C17H19ClN2S/c1-19(2)10-5-11-20-14-6-3-4-7-16(14)21-17-9-8-13(18)12-15(17)20/h3-4,6-9,12H,5,10-11H2,1-2H3
Instrument: Q Exactive Orbitrap (Thermo Scientific)
Instrument type: LC-ESI-QFT
Ms type: MS2
Ion mode: POSITIVE
Ionization: ESI
Fragmentation mode: HCD
Collision energy: 60
Resolution: 17500
Column name: Acquity BEH C18 1.7um, 2.1x150mm (Waters)
Retention time: 16.132 min
Base peak: 79.0211
Precursor m/z: 319.103
Precursor type: [M+H]+
Precursor intensity: 34966709.6875
m/z	relative intensity	assigned
56.0495	6	C3H6N+
57.0572	1	C3H7N+
58.0651	999	C3H8N+
71.0729	8	C4H9N+
84.0808	1	C5H10N+
86.0964	538	C5H12N+
106.0652	1	C7H8N+
117.0699	2	C9H9+
198.0371	3	C12H8NS+
205.0883	1	C15H11N+
206.0962	5	C15H12N+
210.0371	3	C13H8NS+
211.0449	22	C13H9NS+
213.0338	5	C13H8ClN+
214.0417	64	C13H9ClN+
224.053	3	C14H10NS+
233.006	12	C12H8ClNS+
238.0684	4	C15H12NS+
239.0762	27	C15H13NS+
240.0568	2	C15H11ClN+
241.0653	2	C15H12ClN+
246.0138	42	C13H9ClNS+
274.0448	1	C15H13ClNS+
