Mass spectrum: N-Benzyl-N-hydroxy-1-phenylmethanamine; LC-ESI-QFT; MS2; CE: 60; R=17500; [M+H]+
Name: N-Benzyl-N-hydroxy-1-phenylmethanamine
Name: N,N-dibenzylhydroxylamine
Formula: C14H15NO
Exact mass: 213.1154
SMILES: ON(CC1=CC=CC=C1)CC1=CC=CC=C1
InChI: InChI=1S/C14H15NO/c16-15(11-13-7-3-1-4-8-13)12-14-9-5-2-6-10-14/h1-10,16H,11-12H2
Instrument: Q Exactive Orbitrap (Thermo Scientific)
Instrument type: LC-ESI-QFT
Ms type: MS2
Ion mode: POSITIVE
Ionization: ESI
Fragmentation mode: HCD
Collision energy: 60
Resolution: 17500
Column name: Acquity BEH C18 1.7um, 2.1x150mm (Waters)
Retention time: 18.351 min
Base peak: 79.0211
Precursor m/z: 214.1226
Precursor type: [M+H]+
Precursor intensity: 26121213.1875
m/z	relative intensity	assigned
65.0385	11	C5H5+
79.0543	2	C6H7+
81.0699	1	C6H9+
91.0542	6	C7H7+
92.0495	65	C6H6N+
92.062	5	C7H8+
93.0573	42	C6H7N+
94.0651	3	C6H8N+
95.049	1	C6H7O+
106.0651	8	C7H8N+
107.0491	3	C7H7O+
108.0809	2	C7H10N+
109.0647	2	C7H9O+
121.0523	20	C7H7NO+
121.0648	6	C8H9O+
122.06	606	C7H8NO+
122.0718	50	C8H10O+
124.0757	2	C7H10NO+
136.0758	174	C8H10NO+
137.0834	999	C8H11NO+
155.0854	1	C12H11+
156.0811	2	C11H10N+
165.0698	1	C13H9+
167.0729	13	C12H9N+
168.0808	1	C12H10N+
169.0883	1	C12H11N+
170.0967	4	C12H12N+
171.1046	3	C12H13N+
180.0807	1	C13H10N+
181.0882	1	C13H11N+
182.0965	17	C13H12N+
183.1042	36	C13H13N+
184.0757	42	C12H10NO+
198.0913	6	C13H12NO+
199.0995	48	C13H13NO+
214.1225	53	C14H16NO+
