Mass spectrum: N-Benzyl-N-hydroxy-1-phenylmethanamine; LC-ESI-QFT; MS2; CE: 75; R=17500; [M+H]+
Name: N-Benzyl-N-hydroxy-1-phenylmethanamine
Name: N,N-dibenzylhydroxylamine
Formula: C14H15NO
Exact mass: 213.1154
SMILES: ON(CC1=CC=CC=C1)CC1=CC=CC=C1
InChI: InChI=1S/C14H15NO/c16-15(11-13-7-3-1-4-8-13)12-14-9-5-2-6-10-14/h1-10,16H,11-12H2
Instrument: Q Exactive Orbitrap (Thermo Scientific)
Instrument type: LC-ESI-QFT
Ms type: MS2
Ion mode: POSITIVE
Ionization: ESI
Fragmentation mode: HCD
Collision energy: 75
Resolution: 17500
Column name: Acquity BEH C18 1.7um, 2.1x150mm (Waters)
Retention time: 18.351 min
Base peak: 79.0211
Precursor m/z: 214.1226
Precursor type: [M+H]+
Precursor intensity: 27227375.625
m/z	relative intensity	assigned
53.0386	1	C4H5+
65.0385	20	C5H5+
66.0464	1	C5H6+
77.0387	1	C6H5+
79.0541	5	C6H7+
81.07	1	C6H9+
91.0543	13	C7H7+
92.0495	38	C6H6N+
92.062	7	C7H8+
93.0573	90	C6H7N+
94.0651	28	C6H8N+
95.0492	4	C6H7O+
106.0651	11	C7H8N+
107.0491	6	C7H7O+
108.0808	1	C7H10N+
109.065	2	C7H9O+
121.0523	26	C7H7NO+
121.0648	5	C8H9O+
122.06	999	C7H8NO+
129.0699	2	C10H9+
136.0758	76	C8H10NO+
137.0835	381	C8H11NO+
153.0699	1	C12H9+
156.0813	7	C11H10N+
165.0699	2	C13H9+
167.073	11	C12H9N+
168.081	3	C12H10N+
169.0884	1	C12H11N+
170.0965	5	C12H12N+
180.0811	1	C13H10N+
182.0965	14	C13H12N+
183.1043	12	C13H13N+
184.0757	36	C12H10NO+
198.0912	5	C13H12NO+
199.0979	9	C13H13NO+
214.1228	2	C14H16NO+
