Mass spectrum: Thiouracil; LC-ESI-QFT; MS2; CE: 15; R=17500; [M-H]-
Name: Thiouracil
Name: 2-sulfanyl-1H-pyrimidin-6-one
Formula: C4H4N2OS
Exact mass: 128.0044
SMILES: O=C1NC(=S)NC=C1
InChI: InChI=1S/C4H4N2OS/c7-3-1-2-5-4(8)6-3/h1-2H,(H2,5,6,7,8)
Instrument: Q Exactive Orbitrap (Thermo Scientific)
Instrument type: LC-ESI-QFT
Ms type: MS2
Ion mode: NEGATIVE
Ionization: ESI
Fragmentation mode: HCD
Collision energy: 15
Resolution: 17500
Column name: Acquity BEH C18 1.7um, 2.1x150mm (Waters)
Retention time: 2.962 min
Base peak: 126.9971
Precursor m/z: 126.9972
Precursor type: [M-H]-
Precursor intensity: 3267166.665527
m/z	relative intensity	assigned
57.9756	999	CNS-
126.9971	210	C4H3N2OS-
