Mass spectrum: 2,4,5-Trimethoxybenzaldehyde; LC-ESI-QFT; MS2; CE: 60; R=17500; [M+H]+
Name: 2,4,5-Trimethoxybenzaldehyde
Formula: C10H12O4
Exact mass: 196.0736
SMILES: COC1=CC(OC)=C(C=O)C=C1OC
InChI: InChI=1S/C10H12O4/c1-12-8-5-10(14-3)9(13-2)4-7(8)6-11/h4-6H,1-3H3
Instrument: Q Exactive Orbitrap (Thermo Scientific)
Instrument type: LC-ESI-QFT
Ms type: MS2
Ion mode: POSITIVE
Ionization: ESI
Fragmentation mode: HCD
Collision energy: 60
Resolution: 17500
Column name: Acquity BEH C18 1.7um, 2.1x150mm (Waters)
Retention time: 14.071 min
Base peak: 79.0212
Precursor m/z: 197.0808
Precursor type: [M+H]+
Precursor intensity: 3089652.09375
m/z	relative intensity	assigned
53.0386	8	C4H5+
55.0179	2	C3H3O+
55.0542	3	C4H7+
65.0385	11	C5H5+
66.0464	6	C5H6+
67.0542	10	C5H7+
68.9971	2	C3HO2+
69.0334	3	C4H5O+
78.0464	8	C6H6+
79.0542	31	C6H7+
81.0333	2	C5H5O+
81.0699	18	C6H9+
83.0491	12	C5H7O+
92.0258	2	C6H4O+
93.0336	12	C6H5O+
94.0414	13	C6H6O+
95.0491	64	C6H7O+
96.057	33	C6H8O+
97.0283	4	C5H5O2+
97.0648	12	C6H9O+
105.0333	1	C7H5O+
107.0126	5	C6H3O2+
107.0491	3	C7H7O+
108.0569	24	C7H8O+
109.0282	9	C6H5O2+
109.0648	74	C7H9O+
110.0362	3	C6H6O2+
111.0441	143	C6H7O2+
111.0805	12	C7H11O+
121.0283	9	C7H5O2+
122.0363	30	C7H6O2+
123.044	321	C7H7O2+
124.0519	72	C7H8O2+
125.0597	49	C7H9O2+
126.0676	53	C7H10O2+
137.0596	7	C8H9O2+
138.0676	999	C8H10O2+
139.039	379	C7H7O3+
139.0753	117	C8H11O2+
152.0465	2	C8H8O3+
153.0547	28	C8H9O3+
154.0624	482	C8H10O3+
155.0702	4	C8H11O3+
167.034	274	C8H7O4+
167.0702	61	C9H11O3+
168.0781	8	C9H12O3+
169.0859	152	C9H13O3+
181.0495	2	C9H9O4+
182.0574	76	C9H10O4+
195.0651	3	C10H11O4+
197.0823	10	C10H13O4+
