Mass spectrum: Phenyl benzoate; LC-ESI-QFT; MS2; CE: 60; R=17500; [M-H]-
Name: Phenyl benzoate
Formula: C13H10O2
Exact mass: 198.0681
SMILES: O=C(OC1=CC=CC=C1)C1=CC=CC=C1
InChI: InChI=1S/C13H10O2/c14-13(11-7-3-1-4-8-11)15-12-9-5-2-6-10-12/h1-10H
Instrument: Q Exactive Orbitrap (Thermo Scientific)
Instrument type: LC-ESI-QFT
Ms type: MS2
Ion mode: NEGATIVE
Ionization: ESI
Fragmentation mode: HCD
Collision energy: 60
Resolution: 17500
Column name: Acquity BEH C18 1.7um, 2.1x150mm (Waters)
Retention time: 16.174 min
Base peak: 112.9856
Precursor m/z: 197.0608
Precursor type: [M-H]-
Precursor intensity: 277657.0754395
m/z	relative intensity	assigned
91.019	85	C6H3O-
95.0137	44	C5H3O2-
108.0216	76	C6H4O2-
169.0659	52	C12H9O-
195.0453	38	C13H7O2-
197.0608	999	C13H9O2-
