Mass spectrum: Sulfacetamide; LC-ESI-QFT; MS2; CE: 60; R=17500; [M-H]-
Name: Sulfacetamide
Name: N-(4-aminophenyl)sulfonylacetamide
Formula: C8H10N2O3S
Exact mass: 214.0412
SMILES: CC(=O)NS(=O)(=O)C1=CC=C(N)C=C1
InChI: InChI=1S/C8H10N2O3S/c1-6(11)10-14(12,13)8-4-2-7(9)3-5-8/h2-5H,9H2,1H3,(H,10,11)
Instrument: Q Exactive Orbitrap (Thermo Scientific)
Instrument type: LC-ESI-QFT
Ms type: MS2
Ion mode: NEGATIVE
Ionization: ESI
Fragmentation mode: HCD
Collision energy: 60
Resolution: 17500
Column name: Acquity BEH C18 1.7um, 2.1x150mm (Waters)
Retention time: 17.244 min
Base peak: 126.9956
Precursor m/z: 213.0339
Precursor type: [M-H]-
Precursor intensity: 7429303.925781
m/z	relative intensity	assigned
85.0295	57	C4H5O2-
91.0189	8	C6H3O-
126.9956	999	C4H3N2OS-
