Mass spectrum: 2-Hydroxy-4-methoxybenzophenone; LC-ESI-QFT; MS2; CE: 90; R=17500; [M+H]+
Name: 2-Hydroxy-4-methoxybenzophenone
Name: Oxybenzone
Name: (2-hydroxy-4-methoxyphenyl)-phenylmethanone
Formula: C14H12O3
Exact mass: 228.0786
SMILES: COC1=CC=C(C(=O)C2=CC=CC=C2)C(O)=C1
InChI: InChI=1S/C14H12O3/c1-17-11-7-8-12(13(15)9-11)14(16)10-5-3-2-4-6-10/h2-9,15H,1H3
Instrument: Q Exactive Orbitrap (Thermo Scientific)
Instrument type: LC-ESI-QFT
Ms type: MS2
Ion mode: POSITIVE
Ionization: ESI
Fragmentation mode: HCD
Collision energy: 90
Resolution: 17500
Column name: Acquity BEH C18 1.7um, 2.1x150mm (Waters)
Retention time: 18.510 min
Base peak: 79.0212
Precursor m/z: 229.0859
Precursor type: [M+H]+
Precursor intensity: 1088631.125
m/z	relative intensity	assigned
51.023	19	C4H3+
52.0308	9	C4H4+
53.0386	147	C4H5+
55.0179	21	C3H3O+
65.0386	131	C5H5+
67.0542	62	C5H7+
68.9972	9	C3HO2+
77.0386	34	C6H5+
80.0257	21	C5H4O+
81.0335	14	C5H5O+
94.0413	17	C6H6O+
95.0492	999	C6H7O+
98.0363	15	C5H6O2+
105.0336	379	C7H5O+
108.0206	155	C6H4O2+
110.0365	4	C6H6O2+
111.044	13	C6H7O2+
123.044	54	C7H7O2+
136.0155	12	C7H4O3+
141.0546	9	C7H9O3+
151.039	796	C8H7O3+
168.0569	12	C12H8O+
