Mass spectrum: Benzylparaben; LC-ESI-QFT; MS2; CE: 75; R=17500; [M+H]+
Name: Benzylparaben
Name: benzyl 4-hydroxybenzoate
Formula: C14H12O3
Exact mass: 228.0786
SMILES: OC1=CC=C(C=C1)C(=O)OCC1=CC=CC=C1
InChI: InChI=1S/C14H12O3/c15-13-8-6-12(7-9-13)14(16)17-10-11-4-2-1-3-5-11/h1-9,15H,10H2
Instrument: Q Exactive Orbitrap (Thermo Scientific)
Instrument type: LC-ESI-QFT
Ms type: MS2
Ion mode: POSITIVE
Ionization: ESI
Fragmentation mode: HCD
Collision energy: 75
Resolution: 17500
Column name: Acquity BEH C18 1.7um, 2.1x150mm (Waters)
Retention time: 18.510 min
Base peak: 79.0212
Precursor m/z: 229.0859
Precursor type: [M+H]+
Precursor intensity: 1225066.84375
m/z	relative intensity	assigned
51.0231	9	C4H3+
52.0308	6	C4H4+
53.0386	125	C4H5+
55.0178	10	C3H3O+
65.0385	86	C5H5+
67.0542	42	C5H7+
77.0384	23	C6H5+
80.0257	11	C5H4O+
81.0334	7	C5H5O+
94.0414	11	C6H6O+
95.0492	807	C6H7O+
98.0363	10	C5H6O2+
105.0336	457	C7H5O+
108.0206	110	C6H4O2+
111.0443	11	C6H7O2+
123.0441	44	C7H7O2+
141.0549	13	C7H9O3+
151.039	999	C8H7O3+
168.0574	10	C12H8O+
