Mass spectrum: 6-Pentyl-2H-pyran-2-one; LC-ESI-QFT; MS2; CE: 30; R=17500; [M-H]-
Name: 6-Pentyl-2H-pyran-2-one
Name: 6-pentylpyran-2-one
Formula: C10H14O2
Exact mass: 166.0994
SMILES: CCCCCC1=CC=CC(=O)O1
InChI: InChI=1S/C10H14O2/c1-2-3-4-6-9-7-5-8-10(11)12-9/h5,7-8H,2-4,6H2,1H3
Instrument: Q Exactive Orbitrap (Thermo Scientific)
Instrument type: LC-ESI-QFT
Ms type: MS2
Ion mode: NEGATIVE
Ionization: ESI
Fragmentation mode: HCD
Collision energy: 30
Resolution: 17500
Column name: Acquity BEH C18 1.7um, 2.1x150mm (Waters)
Retention time: 16.481 min
Base peak: 165.092
Precursor m/z: 165.0921
Precursor type: [M-H]-
Precursor intensity: 30962649.24512
m/z	relative intensity	assigned
148.053	17	C9H8O2-
149.0607	9	C9H9O2-
165.092	999	C10H13O2-
