Mass spectrum: N-(3-Amino-4-methoxyphenyl)acetamide; LC-ESI-QFT; MS2; CE: 75; R=17500; [M+H]+
Name: N-(3-Amino-4-methoxyphenyl)acetamide
Formula: C9H12N2O2
Exact mass: 180.0899
SMILES: COC1=C(N)C=C(NC(C)=O)C=C1
InChI: InChI=1S/C9H12N2O2/c1-6(12)11-7-3-4-9(13-2)8(10)5-7/h3-5H,10H2,1-2H3,(H,11,12)
Instrument: Q Exactive Orbitrap (Thermo Scientific)
Instrument type: LC-ESI-QFT
Ms type: MS2
Ion mode: POSITIVE
Ionization: ESI
Fragmentation mode: HCD
Collision energy: 75
Resolution: 17500
Column name: Acquity BEH C18 1.7um, 2.1x150mm (Waters)
Retention time: 4.403 min
Base peak: 79.0211
Precursor m/z: 181.0972
Precursor type: [M+H]+
Precursor intensity: 9535702.21875
m/z	relative intensity	assigned
53.0386	10	C4H5+
54.0338	2	C3H4N+
63.0229	2	C5H3+
65.0386	13	C5H5+
67.0542	8	C5H7+
68.013	1	C3H2NO+
68.0494	1	C4H6N+
77.0385	1	C6H5+
79.0416	3	C5H5N+
79.0543	1	C6H7+
80.0495	219	C5H6N+
81.0335	28	C5H5O+
81.0573	11	C5H7N+
82.0647	1	C5H8N+
90.0338	2	C6H4N+
92.0495	19	C6H6N+
93.0574	7	C6H7N+
94.0652	40	C6H8N+
95.0492	53	C6H7O+
95.0604	21	C5H7N2+
96.0444	2	C5H6NO+
96.0682	45	C5H8N2+
97.0076	1	C8H+
97.0522	6	C5H7NO+
98.0601	1	C5H8NO+
104.0495	1	C7H6N+
105.0449	7	C6H5N2+
107.0604	729	C6H7N2+
108.0446	172	C6H6NO+
108.0681	999	C6H8N2+
109.0522	45	C6H7NO+
109.076	12	C6H9N2+
110.06	6	C6H8NO+
111.0315	3	C5H5NO2+
112.0756	6	C6H10NO+
121.0285	2	C7H5O2+
121.0399	1	C6H5N2O+
122.0601	106	C7H8NO+
123.0441	12	C7H7O2+
123.0553	21	C6H7N2O+
123.0679	9	C7H9NO+
124.0632	242	C6H8N2O+
125.0471	10	C6H7NO2+
135.0441	2	C8H7O2+
136.0757	1	C8H10NO+
138.0789	6	C7H10N2O+
139.0866	158	C7H11N2O+
140.0706	26	C7H10NO2+
148.0631	2	C8H8N2O+
150.0785	3	C8H10N2O+
163.0864	3	C9H11N2O+
166.0734	2	C8H10N2O2+
