Mass spectrum: Apigenin; LC-ESI-QFT; MS2; CE: 75; R=17500; [M+H]+
Name: Apigenin
Name: 5,7-dihydroxy-2-(4-hydroxyphenyl)chromen-4-one
Formula: C15H10O5
Exact mass: 270.0528
SMILES: OC1=CC=C(C=C1)C1=CC(=O)C2=C(O1)C=C(O)C=C2O
InChI: InChI=1S/C15H10O5/c16-9-3-1-8(2-4-9)13-7-12(19)15-11(18)5-10(17)6-14(15)20-13/h1-7,16-18H
Instrument: Q Exactive Orbitrap (Thermo Scientific)
Instrument type: LC-ESI-QFT
Ms type: MS2
Ion mode: POSITIVE
Ionization: ESI
Fragmentation mode: HCD
Collision energy: 75
Resolution: 17500
Column name: Acquity BEH C18 1.7um, 2.1x150mm (Waters)
Retention time: 16.458 min
Base peak: 79.0211
Precursor m/z: 271.0601
Precursor type: [M+H]+
Precursor intensity: 2715890.25
m/z	relative intensity	assigned
53.0022	5	C3HO+
53.0387	4	C4H5+
55.0179	8	C3H3O+
63.023	4	C5H3+
65.0385	57	C5H5+
67.0178	331	C4H3O+
68.997	332	C3HO2+
69.0334	33	C4H5O+
79.0178	10	C5H3O+
81.0335	20	C5H5O+
83.0127	16	C4H3O2+
85.0284	10	C4H5O2+
89.0386	5	C7H5+
91.0542	474	C7H7+
92.997	5	C5HO2+
95.049	12	C6H7O+
97.0283	30	C5H5O2+
103.0542	3	C8H7+
107.0493	3	C7H7O+
109.0284	3	C6H5O2+
111.0076	25	C5H3O3+
111.0439	9	C6H7O2+
115.0542	37	C9H7+
117.0333	3	C8H5O+
117.0696	3	C9H9+
119.0491	600	C8H7O+
121.0283	215	C7H5O2+
125.0233	26	C6H5O3+
127.0387	13	C6H7O3+
128.0623	3	C10H8+
129.018	30	C5H5O4+
131.0491	28	C9H7O+
135.0076	9	C7H3O3+
135.0439	7	C8H7O2+
139.054	4	C11H7+
141.0698	57	C11H9+
143.0336	4	C6H7O4+
145.0284	212	C9H5O2+
147.0437	4	C9H7O2+
152.0622	4	C12H8+
153.0181	999	C7H5O4+
155.0491	29	C11H7O+
157.0648	10	C11H9O+
159.044	5	C10H7O2+
163.0389	68	C9H7O3+
168.0568	10	C12H8O+
169.0286	3	C11H5O2+
169.0648	52	C12H9O+
171.0287	148	C7H7O5+
173.0598	8	C11H9O2+
185.0444	16	C8H9O5+
185.0593	4	C12H9O2+
187.0389	30	C11H7O3+
197.0596	36	C13H9O2+
201.0546	4	C12H9O3+
202.0624	5	C12H10O3+
203.0702	7	C12H11O3+
215.0702	4	C13H11O3+
225.0546	27	C14H9O3+
229.0495	31	C13H9O4+
242.0571	9	C14H10O4+
243.0651	60	C14H11O4+
247.0592	3	C13H11O5+
253.049	14	C15H9O4+
271.06	321	C15H11O5+
