Mass spectrum: 2`,4`,5`-Trihydroxybutyrophenone; LC-ESI-QFT; MS2; CE: 30; R=17500; [M+H]+
Name: 2',4',5'-Trihydroxybutyrophenone
Name: 2,4,5-Trihydroxybutyrophenone
Name: 1-(2,4,5-trihydroxyphenyl)butan-1-one
Formula: C10H12O4
Exact mass: 196.0736
SMILES: CCCC(=O)C1=CC(O)=C(O)C=C1O
InChI: InChI=1S/C10H12O4/c1-2-3-7(11)6-4-9(13)10(14)5-8(6)12/h4-5,12-14H,2-3H2,1H3
Instrument: Q Exactive Orbitrap (Thermo Scientific)
Instrument type: LC-ESI-QFT
Ms type: MS2
Ion mode: POSITIVE
Ionization: ESI
Fragmentation mode: HCD
Collision energy: 30
Resolution: 17500
Column name: Acquity BEH C18 1.7um, 2.1x150mm (Waters)
Retention time: 14.071 min
Base peak: 79.0212
Precursor m/z: 197.0808
Precursor type: [M+H]+
Precursor intensity: 2816637
m/z	relative intensity	assigned
66.01	1	C4H2O+
109.0649	5	C7H9O+
122.0359	1	C7H6O2+
123.044	4	C7H7O2+
124.0519	1	C7H8O2+
137.0595	2	C8H9O2+
138.0675	314	C8H10O2+
139.0391	3	C7H7O3+
139.0754	44	C8H11O2+
154.0624	397	C8H10O3+
167.0703	117	C9H11O3+
168.0787	3	C9H12O3+
169.0859	976	C9H13O3+
182.0574	69	C9H10O4+
195.0651	1	C10H11O4+
197.0811	999	C10H13O4+
