Mass spectrum: 21-Hydroxyprogesterone; LC-ESI-QFT; MS2; CE: 45; R=17500; [M+H]+
Name: 21-Hydroxyprogesterone
Name: Desoxycortone
Name: (8S,9S,10R,13S,14S,17S)-17-(2-hydroxyacetyl)-10,13-dimethyl-1,2,6,7,8,9,11,12,14,15,16,17-dodecahydrocyclopenta[a]phenanthren-3-one
Formula: C21H30O3
Exact mass: 330.2195
SMILES: C[C@]12CC[C@H]3[C@@H](CCC4=CC(=O)CC[C@]34C)[C@@H]1CC[C@@H]2C(=O)CO
InChI: InChI=1S/C21H30O3/c1-20-9-7-14(23)11-13(20)3-4-15-16-5-6-18(19(24)12-22)21(16,2)10-8-17(15)20/h11,15-18,22H,3-10,12H2,1-2H3/t15-,16-,17-,18+,20-,21-/m0/s1
Instrument: Q Exactive Orbitrap (Thermo Scientific)
Instrument type: LC-ESI-QFT
Ms type: MS2
Ion mode: POSITIVE
Ionization: ESI
Fragmentation mode: HCD
Collision energy: 45
Resolution: 17500
Column name: Acquity BEH C18 1.7um, 2.1x150mm (Waters)
Retention time: 17.832 min
Base peak: 79.0211
Precursor m/z: 331.2268
Precursor type: [M+H]+
Precursor intensity: 4120704.875
m/z	relative intensity	assigned
53.0387	4	C4H5+
55.0179	7	C3H3O+
55.0543	6	C4H7+
59.0492	1	C3H7O+
67.0543	13	C5H7+
69.0337	2	C4H5O+
69.0698	10	C5H9+
71.049	2	C4H7O+
79.0543	39	C6H7+
81.0699	53	C6H9+
83.0492	59	C5H7O+
83.0856	5	C6H11+
85.0649	8	C5H9O+
87.044	3	C4H7O2+
91.0543	14	C7H7+
93.07	33	C7H9+
95.0491	5	C6H7O+
95.0856	51	C7H11+
97.0649	999	C6H9O+
99.044	2	C5H7O2+
99.0806	7	C6H11O+
105.07	33	C8H9+
107.0492	4	C7H7O+
107.0856	41	C8H11+
109.0649	937	C7H9O+
111.0805	13	C7H11O+
117.0699	7	C9H9+
119.0857	45	C9H11+
121.0649	22	C8H9O+
121.1012	27	C9H13+
123.0805	109	C8H11O+
125.0964	2	C8H13O+
127.0755	2	C7H11O2+
128.0623	1	C10H8+
129.0699	6	C10H9+
131.0856	28	C10H11+
133.1013	39	C10H13+
135.0805	17	C9H11O+
135.1168	18	C10H15+
137.0962	37	C9H13O+
139.1116	4	C9H15O+
141.0699	4	C11H9+
143.0856	28	C11H11+
145.1013	68	C11H13+
147.0805	8	C10H11O+
147.1169	42	C11H15+
149.0961	20	C10H13O+
149.1325	8	C11H17+
151.1117	7	C10H15O+
155.0854	11	C12H11+
156.0932	2	C12H12+
157.1013	35	C12H13+
159.1169	59	C12H15+
160.1248	2	C12H16+
161.0961	12	C11H13O+
161.1326	30	C12H17+
163.1118	65	C11H15O+
163.1481	8	C12H19+
167.0856	1	C13H11+
169.1012	22	C13H13+
171.1169	48	C13H15+
173.0961	7	C12H13O+
173.1326	39	C13H17+
175.1119	21	C12H15O+
175.1482	42	C13H19+
177.1274	38	C12H17O+
181.1015	8	C14H13+
183.1168	20	C14H15+
185.0962	2	C13H13O+
185.1325	33	C14H17+
187.1118	10	C13H15O+
187.1483	28	C14H19+
189.1276	20	C13H17O+
189.1638	8	C14H21+
191.143	7	C13H19O+
195.1172	13	C15H15+
197.1326	25	C15H17+
199.1119	3	C14H15O+
199.1482	29	C15H19+
201.1274	6	C14H17O+
201.1636	7	C15H21+
203.1431	11	C14H19O+
205.1587	16	C14H21O+
207.1173	2	C16H15+
209.1326	9	C16H17+
211.1482	30	C16H19+
213.1271	6	C15H17O+
213.1639	27	C16H21+
215.1429	8	C15H19O+
217.159	12	C15H21O+
221.1325	5	C17H17+
223.1481	7	C17H19+
225.1274	1	C16H17O+
225.1636	12	C17H21+
227.1425	5	C16H19O+
227.18	7	C17H23+
229.159	10	C16H21O+
231.1743	3	C16H23O+
235.1477	5	C18H19+
237.1639	20	C18H21+
239.1428	3	C17H19O+
239.1789	1	C18H23+
241.1583	6	C17H21O+
243.1737	7	C17H23O+
245.1909	1	C17H25O+
249.1638	3	C19H21+
251.1798	7	C19H23+
252.1865	6	C19H24+
253.1589	3	C18H21O+
253.1952	54	C19H25+
255.1745	14	C18H23O+
259.1687	2	C17H23O2+
267.2103	3	C20H27+
269.19	12	C19H25O+
270.1983	9	C19H26O+
271.2056	33	C19H27O+
273.1854	1	C18H25O2+
277.1952	8	C21H25+
285.221	1	C20H29O+
295.2062	24	C21H27O+
313.2166	19	C21H29O2+
331.2266	8	C21H31O3+
