Mass spectrum: 2`,4`,5`-Trihydroxybutyrophenone; LC-ESI-QFT; MS2; CE: 45; R=17500; [M-H]-
Name: 2',4',5'-Trihydroxybutyrophenone
Name: 2,4,5-Trihydroxybutyrophenone
Name: 1-(2,4,5-trihydroxyphenyl)butan-1-one
Formula: C10H12O4
Exact mass: 196.0736
SMILES: CCCC(=O)C1=CC(O)=C(O)C=C1O
InChI: InChI=1S/C10H12O4/c1-2-3-7(11)6-4-9(13)10(14)5-8(6)12/h4-5,12-14H,2-3H2,1H3
Instrument: Q Exactive Orbitrap (Thermo Scientific)
Instrument type: LC-ESI-QFT
Ms type: MS2
Ion mode: NEGATIVE
Ionization: ESI
Fragmentation mode: HCD
Collision energy: 45
Resolution: 17500
Column name: Acquity BEH C18 1.7um, 2.1x150mm (Waters)
Retention time: 15.334 min
Base peak: 112.9857
Precursor m/z: 195.0663
Precursor type: [M-H]-
Precursor intensity: 5067639.876465
m/z	relative intensity	assigned
55.0189	2	C3H3O-
67.0189	2	C4H3O-
69.0346	15	C4H5O-
79.0189	2	C5H3O-
80.0268	3	C5H4O-
81.0346	24	C5H5O-
83.0139	14	C4H3O2-
95.0139	55	C5H3O2-
97.0295	33	C5H5O2-
97.066	14	C6H9O-
107.0139	80	C6H3O2-
108.0215	4	C6H4O2-
109.0659	7	C7H9O-
111.0452	4	C6H7O2-
111.0814	8	C7H11O-
121.0659	4	C8H9O-
122.0372	15	C7H6O2-
123.0087	53	C6H3O3-
123.0816	12	C8H11O-
124.0166	162	C6H4O3-
125.0244	647	C6H5O3-
127.0765	4	C7H11O2-
133.0659	5	C9H9O-
138.0321	2	C7H6O3-
139.0765	3	C8H11O2-
141.0193	4	C6H5O4-
149.0608	4	C9H9O2-
151.0037	265	C7H3O4-
151.0764	16	C9H11O2-
152.0115	61	C7H4O4-
153.0558	20	C8H9O3-
162.0324	2	C9H6O3-
166.0271	147	C8H6O4-
167.0713	17	C9H11O3-
177.0556	22	C10H9O3-
179.0353	2	C9H7O4-
194.0584	2	C10H10O4-
195.0662	999	C10H11O4-
