Mass spectrum: Sulfacetamide; LC-ESI-QFT; MS2; CE: 75; R=17500; [M+H]+
Name: Sulfacetamide
Name: N-(4-aminophenyl)sulfonylacetamide
Formula: C8H10N2O3S
Exact mass: 214.0412
SMILES: CC(=O)NS(=O)(=O)C1=CC=C(N)C=C1
InChI: InChI=1S/C8H10N2O3S/c1-6(11)10-14(12,13)8-4-2-7(9)3-5-8/h2-5H,9H2,1H3,(H,10,11)
Instrument: Q Exactive Orbitrap (Thermo Scientific)
Instrument type: LC-ESI-QFT
Ms type: MS2
Ion mode: POSITIVE
Ionization: ESI
Fragmentation mode: HCD
Collision energy: 75
Resolution: 17500
Column name: Acquity BEH C18 1.7um, 2.1x150mm (Waters)
Retention time: 5.861 min
Base peak: 79.0211
Precursor m/z: 215.0485
Precursor type: [M+H]+
Precursor intensity: 1173886.875
m/z	relative intensity	assigned
61.0107	182	C2H5S+
65.0386	308	C5H5+
79.0213	999	C2H7OS+
92.0496	303	C6H6N+
108.0444	218	C6H6NO+
114.9711	116	C3HNO2S+
128.9866	94	C4H3NO2S+
153.9593	121	C5NO3S+
