Mass spectrum: Apigenin; LC-ESI-QFT; MS2; CE: 90; R=17500; [M+H]+
Name: Apigenin
Name: 5,7-dihydroxy-2-(4-hydroxyphenyl)chromen-4-one
Formula: C15H10O5
Exact mass: 270.0528
SMILES: OC1=CC=C(C=C1)C1=CC(=O)C2=C(O1)C=C(O)C=C2O
InChI: InChI=1S/C15H10O5/c16-9-3-1-8(2-4-9)13-7-12(19)15-11(18)5-10(17)6-14(15)20-13/h1-7,16-18H
Instrument: Q Exactive Orbitrap (Thermo Scientific)
Instrument type: LC-ESI-QFT
Ms type: MS2
Ion mode: POSITIVE
Ionization: ESI
Fragmentation mode: HCD
Collision energy: 90
Resolution: 17500
Column name: Acquity BEH C18 1.7um, 2.1x150mm (Waters)
Retention time: 16.458 min
Base peak: 79.0211
Precursor m/z: 271.0601
Precursor type: [M+H]+
Precursor intensity: 2462241
m/z	relative intensity	assigned
53.0022	20	C3HO+
53.0385	11	C4H5+
55.0179	31	C3H3O+
63.0229	20	C5H3+
65.0386	272	C5H5+
67.0178	465	C4H3O+
68.9971	804	C3HO2+
69.0335	126	C4H5O+
79.0178	37	C5H3O+
81.0335	45	C5H5O+
83.0128	37	C4H3O2+
85.0284	13	C4H5O2+
89.0386	43	C7H5+
91.0542	999	C7H7+
92.9971	12	C5HO2+
95.0491	17	C6H7O+
97.0284	83	C5H5O2+
103.0541	7	C8H7+
107.0492	9	C7H7O+
111.0077	27	C5H3O3+
111.044	28	C6H7O2+
115.0542	134	C9H7+
117.0336	6	C8H5O+
117.07	9	C9H9+
119.0492	417	C8H7O+
121.0284	251	C7H5O2+
125.0235	28	C6H5O3+
127.039	9	C6H7O3+
128.0621	14	C10H8+
129.0182	6	C5H5O4+
131.0492	38	C9H7O+
135.0074	7	C7H3O3+
135.0439	4	C8H7O2+
139.0542	11	C11H7+
141.0699	85	C11H9+
145.0284	298	C9H5O2+
147.0435	4	C9H7O2+
152.0622	10	C12H8+
153.0183	766	C7H5O4+
155.0491	55	C11H7O+
157.0652	5	C11H9O+
159.0439	5	C10H7O2+
163.0388	28	C9H7O3+
168.057	32	C12H8O+
169.0284	6	C11H5O2+
169.0649	39	C12H9O+
171.0288	55	C7H7O5+
173.0598	10	C11H9O2+
185.0446	7	C8H9O5+
187.0389	12	C11H7O3+
197.0599	28	C13H9O2+
225.0544	5	C14H9O3+
229.0496	4	C13H9O4+
242.0575	7	C14H10O4+
243.0652	18	C14H11O4+
253.0497	8	C15H9O4+
271.0599	27	C15H11O5+
