Mass spectrum: 2`,4`,5`-Trihydroxybutyrophenone; LC-ESI-QFT; MS2; CE: 60; R=17500; [M-H]-
Name: 2',4',5'-Trihydroxybutyrophenone
Name: 2,4,5-Trihydroxybutyrophenone
Name: 1-(2,4,5-trihydroxyphenyl)butan-1-one
Formula: C10H12O4
Exact mass: 196.0736
SMILES: CCCC(=O)C1=CC(O)=C(O)C=C1O
InChI: InChI=1S/C10H12O4/c1-2-3-7(11)6-4-9(13)10(14)5-8(6)12/h4-5,12-14H,2-3H2,1H3
Instrument: Q Exactive Orbitrap (Thermo Scientific)
Instrument type: LC-ESI-QFT
Ms type: MS2
Ion mode: NEGATIVE
Ionization: ESI
Fragmentation mode: HCD
Collision energy: 60
Resolution: 17500
Column name: Acquity BEH C18 1.7um, 2.1x150mm (Waters)
Retention time: 15.334 min
Base peak: 112.9857
Precursor m/z: 195.0663
Precursor type: [M-H]-
Precursor intensity: 6250215.773437
m/z	relative intensity	assigned
55.0189	11	C3H3O-
67.0189	10	C4H3O-
69.0346	112	C4H5O-
79.0189	12	C5H3O-
80.0268	3	C5H4O-
81.0346	58	C5H5O-
83.0138	56	C4H3O2-
84.0217	5	C4H4O2-
85.0294	11	C4H5O2-
95.0139	271	C5H3O2-
96.0218	3	C5H4O2-
97.0295	126	C5H5O2-
97.0659	74	C6H9O-
107.0139	317	C6H3O2-
108.0217	11	C6H4O2-
109.0658	13	C7H9O-
110.0007	6	C5H2O3-
111.0087	7	C5H3O3-
111.0451	9	C6H7O2-
111.0815	23	C7H11O-
113.024	2	C5H5O3-
121.0294	5	C7H5O2-
121.066	14	C8H9O-
122.0373	20	C7H6O2-
123.0088	240	C6H3O3-
123.0813	13	C8H11O-
124.0166	526	C6H4O3-
125.0244	999	C6H5O3-
127.0764	7	C7H11O2-
133.066	6	C9H9O-
134.0368	4	C8H6O2-
135.0084	2	C7H3O3-
137.0244	5	C7H5O3-
138.0324	6	C7H6O3-
139.0764	6	C8H11O2-
141.0191	13	C6H5O4-
149.0606	12	C9H9O2-
151.0037	450	C7H3O4-
152.0115	215	C7H4O4-
153.0555	23	C8H9O3-
162.0324	11	C9H6O3-
165.0193	5	C8H5O4-
166.0271	376	C8H6O4-
167.0714	13	C9H11O3-
177.0557	22	C10H9O3-
179.0351	4	C9H7O4-
194.0581	9	C10H10O4-
195.0662	354	C10H11O4-
