Mass spectrum: Chlorpromazine; LC-ESI-QFT; MS2; CE: 75; R=17500; [M+H]+
Name: Chlorpromazine
Name: 3-(2-chlorophenothiazin-10-yl)-N,N-dimethylpropan-1-amine
Formula: C17H19ClN2S
Exact mass: 318.0957
SMILES: CN(C)CCCN1C2=C(SC3=C1C=C(Cl)C=C3)C=CC=C2
InChI: InChI=1S/C17H19ClN2S/c1-19(2)10-5-11-20-14-6-3-4-7-16(14)21-17-9-8-13(18)12-15(17)20/h3-4,6-9,12H,5,10-11H2,1-2H3
Instrument: Q Exactive Orbitrap (Thermo Scientific)
Instrument type: LC-ESI-QFT
Ms type: MS2
Ion mode: POSITIVE
Ionization: ESI
Fragmentation mode: HCD
Collision energy: 75
Resolution: 17500
Column name: Acquity BEH C18 1.7um, 2.1x150mm (Waters)
Retention time: 16.139 min
Base peak: 79.0211
Precursor m/z: 319.103
Precursor type: [M+H]+
Precursor intensity: 31677436.09375
m/z	relative intensity	assigned
56.0495	9	C3H6N+
58.0651	999	C3H8N+
71.0729	12	C4H9N+
84.0808	1	C5H10N+
86.0964	252	C5H12N+
106.0652	1	C7H8N+
115.0543	1	C9H7+
117.0698	2	C9H9+
166.0653	1	C12H8N+
167.0729	4	C12H9N+
177.0573	1	C13H7N+
178.065	1	C13H8N+
179.0724	1	C13H9N+
184.0343	1	C12H8S+
198.0372	11	C12H8NS+
201.0341	3	C12H8ClN+
204.0809	2	C15H10N+
205.0888	1	C15H11N+
206.0964	7	C15H12N+
207.1042	1	C15H13N+
210.0371	6	C13H8NS+
211.045	31	C13H9NS+
213.0338	11	C13H8ClN+
214.0417	86	C13H9ClN+
223.0456	1	C14H9NS+
224.0527	4	C14H10NS+
233.006	6	C12H8ClNS+
238.0683	6	C15H12NS+
239.0762	8	C15H13NS+
240.0571	4	C15H11ClN+
246.0138	11	C13H9ClNS+
