Mass spectrum: Cyhalofop-butyl; LC-ESI-QFT; MS2; CE: 75; R=17500; [M-H]-
Name: Cyhalofop-butyl
Formula: C20H20FNO4
Exact mass: 357.1376
SMILES: CCCCOC(=O)[C@@H](C)OC1=CC=C(OC2=C(F)C=C(C=C2)C#N)C=C1
InChI: InChI=1S/C20H20FNO4/c1-3-4-11-24-20(23)14(2)25-16-6-8-17(9-7-16)26-19-10-5-15(13-22)12-18(19)21/h5-10,12,14H,3-4,11H2,1-2H3/t14-/m1/s1
Instrument: Q Exactive Orbitrap (Thermo Scientific)
Instrument type: LC-ESI-QFT
Ms type: MS2
Ion mode: NEGATIVE
Ionization: ESI
Fragmentation mode: HCD
Collision energy: 75
Resolution: 17500
Column name: Acquity BEH C18 1.7um, 2.1x150mm (Waters)
Retention time: 15.695 min
Base peak: 356.1303
Precursor m/z: 356.1304
Precursor type: [M-H]-
Precursor intensity: 52159420.08398
m/z	relative intensity	assigned
65.0035	2	C4HO-
65.0272	2	C4H3N-
65.0397	1	C5H5-
65.9986	86	C3NO-
67.0189	1	C4H3O-
68.0142	2	C3H2NO-
68.9981	1	C3HO2-
79.0189	1	C5H3O-
81.0346	80	C5H5O-
82.006	2	C4H2O2-
83.0303	3	C5H4F-
91.019	5	C6H3O-
92.0267	5	C6H4O-
93.0346	360	C6H5O-
95.0139	23	C5H3O2-
95.0303	246	C6H4F-
98.0008	3	C4H2O3-
100.0194	1	C7H2N-
105.022	7	C6H3NO-
107.0503	5	C7H7O-
108.0218	119	C6H4O2-
116.0268	1	C8H4O-
117.022	23	C7H3NO-
117.0346	21	C8H5O-
118.0299	162	C7H4NO-
119.014	3	C7H3O2-
119.0503	8	C8H7O-
120.0091	49	C6H2NO2-
120.0214	4	C7H4O2-
120.0256	19	C7H3FN-
121.0293	3	C7H5O2-
122.0245	2	C6H4NO2-
122.0371	1	C7H6O2-
122.9964	2	C5HNO3-
123.0089	15	C6H3O3-
123.0252	1	C7H4FO-
132.0216	3	C8H4O2-
132.0457	5	C8H6NO-
133.017	126	C7H3NO2-
135.0452	999	C8H7O2-
136.0404	5	C7H6NO2-
137.0409	83	C8H6FO-
138.0361	30	C7H5FNO-
139.0202	31	C7H4FO2-
143.0502	2	C10H7O-
144.0457	2	C9H6NO-
145.0169	9	C8H3NO2-
146.0735	1	C10H10O-
147.0817	4	C10H11O-
148.0039	3	C7H2NO3-
148.0531	9	C9H8O2-
149.0283	2	C8H4FNO-
149.0608	6	C9H9O2-
150.0197	3	C7H4NO3-
157.0659	6	C11H9O-
158.0612	8	C10H8NO-
159.0452	74	C10H7O2-
160.0405	746	C9H6NO2-
161.0408	28	C10H6FO-
161.0607	5	C10H9O2-
162.0561	213	C9H8NO2-
163.04	5	C9H7O3-
164.0152	5	C8H3FNO2-
166.0309	8	C8H5FNO2-
175.0404	6	C10H7O3-
175.0565	51	C11H8FO-
177.072	19	C11H10FO-
180.0428	10	C9H8O4-
183.0452	2	C12H7O2-
189.0922	6	C12H13O2-
193.0656	2	C14H9O-
198.0489	7	C13H7FO-
199.0563	2	C13H8FO-
199.0762	10	C13H11O2-
200.0715	2	C12H10NO2-
202.0671	2	C12H9FNO-
211.0564	3	C14H8FO-
212.0517	5	C13H7FNO-
213.0359	7	C13H6FO2-
214.0671	3	C13H9FNO-
215.0517	2	C13H8FO2-
219.0451	2	C15H7O2-
227.0398	1	C13H6FNO2-
233.0611	3	C16H9O2-
239.0388	3	C14H6FNO2-
240.0466	10	C14H7FNO2-
241.0546	5	C14H8FNO2-
242.0621	2	C14H9FNO2-
244.0413	5	C13H7FNO3-
253.0673	8	C16H10FO2-
254.062	6	C15H9FNO2-
256.0783	3	C15H11FNO2-
257.0617	8	C15H10FO3-
276.0824	2	C18H11FNO-
278.0986	3	C18H13FNO-
280.0781	14	C17H11FNO2-
282.0572	36	C16H9FNO3-
283.0652	27	C16H10FNO3-
284.0739	6	C16H11FNO3-
320.1092	4	C20H15FNO2-
322.0889	8	C19H13FNO3-
