Mass spectrum: Cyhalofop-butyl; LC-ESI-QFT; MS2; CE: 15; R=17500; [M-H]-
Name: Cyhalofop-butyl
Formula: C20H20FNO4
Exact mass: 357.1376
SMILES: CCCCOC(=O)[C@@H](C)OC1=CC=C(OC2=C(F)C=C(C=C2)C#N)C=C1
InChI: InChI=1S/C20H20FNO4/c1-3-4-11-24-20(23)14(2)25-16-6-8-17(9-7-16)26-19-10-5-15(13-22)12-18(19)21/h5-10,12,14H,3-4,11H2,1-2H3/t14-/m1/s1
Instrument: Q Exactive Orbitrap (Thermo Scientific)
Instrument type: LC-ESI-QFT
Ms type: MS2
Ion mode: NEGATIVE
Ionization: ESI
Fragmentation mode: HCD
Collision energy: 15
Resolution: 17500
Column name: Acquity BEH C18 1.7um, 2.1x150mm (Waters)
Retention time: 15.695 min
Base peak: 356.1303
Precursor m/z: 356.1304
Precursor type: [M-H]-
Precursor intensity: 50771115.49902
m/z	relative intensity	assigned
135.045	2	C8H7O2-
137.0405	1	C8H6FO-
138.0359	8	C7H5FNO-
139.0199	1	C7H4FO2-
160.0402	11	C9H6NO2-
177.0719	1	C11H10FO-
217.087	6	C13H13O3-
268.0781	1	C16H11FNO2-
284.0728	78	C16H11FNO3-
285.0807	3	C16H12FNO3-
286.0886	7	C16H13FNO3-
298.0883	280	C17H13FNO3-
320.1094	6	C20H15FNO2-
338.1199	129	C20H17FNO3-
356.1302	999	C20H19FNO4-
