Mass spectrum: Carbofuran; LC-ESI-QFT; MS2; CE: 15; R=17500; [M+H]+
Name: Carbofuran
Name: (2,2-dimethyl-3H-1-benzofuran-7-yl) N-methylcarbamate
Formula: C12H15NO3
Exact mass: 221.1052
SMILES: CNC(=O)OC1=CC=CC2=C1OC(C)(C)C2
InChI: InChI=1S/C12H15NO3/c1-12(2)7-8-5-4-6-9(10(8)16-12)15-11(14)13-3/h4-6H,7H2,1-3H3,(H,13,14)
Instrument: Q Exactive Orbitrap (Thermo Scientific)
Instrument type: LC-ESI-QFT
Ms type: MS2
Ion mode: POSITIVE
Ionization: ESI
Fragmentation mode: HCD
Collision energy: 15
Resolution: 17500
Column name: Acquity BEH C18 1.7um, 2.1x150mm (Waters)
Retention time: 15.231 min
Base peak: 79.0211
Precursor m/z: 222.1125
Precursor type: [M+H]+
Precursor intensity: 9395887.125
m/z	relative intensity	assigned
55.0544	4	C4H7+
58.0288	3	C2H4NO+
119.0857	5	C9H11+
123.0441	123	C7H7O2+
137.0599	9	C8H9O2+
138.0915	2	C8H12NO+
147.0807	5	C10H11O+
165.0911	999	C10H13O2+
191.0704	2	C11H11O3+
222.1125	118	C12H16NO3+
