Mass spectrum: Butoxycarboxim; LC-ESI-QFT; MS2; CE: 75; R=17500; [M+H]+
Name: Butoxycarboxim
Name: [(E)-3-methylsulfonylbutan-2-ylideneamino] N-methylcarbamate
Formula: C7H14N2O4S
Exact mass: 222.0674
SMILES: CNC(=O)O\N=C(/C)C(C)S(C)(=O)=O
InChI: InChI=1S/C7H14N2O4S/c1-5(6(2)14(4,11)12)9-13-7(10)8-3/h6H,1-4H3,(H,8,10)/b9-5+
Instrument: Q Exactive Orbitrap (Thermo Scientific)
Instrument type: LC-ESI-QFT
Ms type: MS2
Ion mode: POSITIVE
Ionization: ESI
Fragmentation mode: HCD
Collision energy: 75
Resolution: 17500
Column name: Acquity BEH C18 1.7um, 2.1x150mm (Waters)
Retention time: 17.855 min
Base peak: 79.0211
Precursor m/z: 223.0747
Precursor type: [M+H]+
Precursor intensity: 29430432
m/z	relative intensity	assigned
50.0151	2	C4H2+
51.023	5	C4H3+
53.0386	219	C4H5+
55.0178	13	C3H3O+
56.0495	1	C3H6N+
65.0386	360	C5H5+
67.0541	1	C5H7+
68.9971	85	C3HO2+
75.0228	2	C6H3+
77.0385	116	C6H5+
79.0542	3	C6H7+
80.0254	1	C5H4O+
81.0335	22	C5H5O+
81.0698	2	C6H9+
89.0385	3	C7H5+
93.0336	261	C6H5O+
94.0414	25	C6H6O+
95.0492	852	C6H7O+
97.0534	1	C5H7NO+
98.0363	2	C5H6O2+
101.0387	2	H9N2O2S+
102.0464	9	H10N2O2S+
103.0542	682	H11N2O2S+
105.0336	108	C7H5O+
105.0447	255	C6H5N2+
109.0648	17	C7H9O+
111.0441	164	C6H7O2+
115.0544	2	CH11N2O2S+
118.0413	3	H10N2O3S+
121.0284	733	C7H5O2+
125.0598	16	C7H9O2+
128.0621	2	C2H12N2O2S+
129.0335	547	CH9N2O3S+
139.039	71	C7H7O3+
141.0698	4	C3H13N2O2S+
147.0439	8	CH11N2O4S+
151.0542	1	C4H11N2O2S+
152.0621	191	C4H12N2O2S+
153.0699	21	C4H13N2O2S+
155.0852	3	C4H15N2O2S+
165.0699	142	C5H13N2O2S+
166.0778	54	C5H14N2O2S+
167.0856	188	C5H15N2O2S+
169.0648	14	C4H13N2O3S+
176.0621	35	C6H12N2O2S+
177.07	49	C6H13N2O2S+
178.0777	344	C6H14N2O2S+
179.06	3	C6H13NO3S+
179.0856	12	C6H15N2O2S+
181.0649	13	C5H13N2O3S+
194.0726	5	C6H14N2O3S+
195.0806	12	C6H15N2O3S+
205.0648	3	C7H13N2O3S+
223.0754	999	C7H15N2O4S+
