Mass spectrum: Fadrozole; LC-ESI-QFT; MS2; CE: 15; R=17500; [M+H]+
Name: Fadrozole
Name: 4-(5,6,7,8-tetrahydroimidazo[1,5-a]pyridin-5-yl)benzonitrile
Formula: C14H13N3
Exact mass: 223.1109
SMILES: N#CC1=CC=C(C=C1)C1CCCC2=CN=CN12
InChI: InChI=1S/C14H13N3/c15-8-11-4-6-12(7-5-11)14-3-1-2-13-9-16-10-17(13)14/h4-7,9-10,14H,1-3H2
Instrument: Q Exactive Orbitrap (Thermo Scientific)
Instrument type: LC-ESI-QFT
Ms type: MS2
Ion mode: POSITIVE
Ionization: ESI
Fragmentation mode: HCD
Collision energy: 15
Resolution: 17500
Column name: Acquity BEH C18 1.7um, 2.1x150mm (Waters)
Retention time: 17.960 min
Base peak: 79.0212
Precursor m/z: 224.1182
Precursor type: [M+H]+
Precursor intensity: 64235593.53125
m/z	relative intensity	assigned
224.1181	999	C14H14N3+
