Mass spectrum: Chlorpromazine; LC-ESI-QFT; MS2; CE: 45; R=17500; [M+H]+
Name: Chlorpromazine
Name: 3-(2-chlorophenothiazin-10-yl)-N,N-dimethylpropan-1-amine
Formula: C17H19ClN2S
Exact mass: 318.0957
SMILES: CN(C)CCCN1C2=C(SC3=C1C=C(Cl)C=C3)C=CC=C2
InChI: InChI=1S/C17H19ClN2S/c1-19(2)10-5-11-20-14-6-3-4-7-16(14)21-17-9-8-13(18)12-15(17)20/h3-4,6-9,12H,5,10-11H2,1-2H3
Instrument: Q Exactive Orbitrap (Thermo Scientific)
Instrument type: LC-ESI-QFT
Ms type: MS2
Ion mode: POSITIVE
Ionization: ESI
Fragmentation mode: HCD
Collision energy: 45
Resolution: 17500
Column name: Acquity BEH C18 1.7um, 2.1x150mm (Waters)
Retention time: 16.139 min
Base peak: 79.0211
Precursor m/z: 319.103
Precursor type: [M+H]+
Precursor intensity: 31193537.03125
m/z	relative intensity	assigned
56.0495	3	C3H6N+
58.0651	841	C3H8N+
71.0729	3	C4H9N+
86.0963	999	C5H12N+
106.065	1	C7H8N+
117.0698	1	C9H9+
211.0447	4	C13H9NS+
214.0416	19	C13H9ClN+
233.0059	9	C12H8ClNS+
238.0684	2	C15H12NS+
239.0762	43	C15H13NS+
240.0575	1	C15H11ClN+
241.0653	5	C15H12ClN+
246.0137	76	C13H9ClNS+
274.045	10	C15H13ClNS+
319.103	4	C17H20ClN2S+
