Mass spectrum: N-Benzyl-N-hydroxy-1-phenylmethanamine; LC-ESI-QFT; MS2; CE: 45; R=17500; [M+H]+
Name: N-Benzyl-N-hydroxy-1-phenylmethanamine
Name: N,N-dibenzylhydroxylamine
Formula: C14H15NO
Exact mass: 213.1154
SMILES: ON(CC1=CC=CC=C1)CC1=CC=CC=C1
InChI: InChI=1S/C14H15NO/c16-15(11-13-7-3-1-4-8-13)12-14-9-5-2-6-10-14/h1-10,16H,11-12H2
Instrument: Q Exactive Orbitrap (Thermo Scientific)
Instrument type: LC-ESI-QFT
Ms type: MS2
Ion mode: POSITIVE
Ionization: ESI
Fragmentation mode: HCD
Collision energy: 45
Resolution: 17500
Column name: Acquity BEH C18 1.7um, 2.1x150mm (Waters)
Retention time: 18.351 min
Base peak: 79.0211
Precursor m/z: 214.1226
Precursor type: [M+H]+
Precursor intensity: 26501072.29687
m/z	relative intensity	assigned
65.0384	3	C5H5+
91.0542	1	C7H7+
92.0494	62	C6H6N+
93.0572	10	C6H7N+
106.0651	2	C7H8N+
108.0807	2	C7H10N+
109.0646	1	C7H9O+
121.0521	4	C7H7NO+
121.0647	6	C8H9O+
122.06	102	C7H8NO+
122.0725	47	C8H10O+
124.0756	1	C7H10NO+
136.0758	183	C8H10NO+
137.0834	999	C8H11NO+
165.0703	1	C13H9+
167.0728	13	C12H9N+
171.1046	2	C12H13N+
180.0807	1	C13H10N+
182.0963	29	C13H12N+
183.1042	51	C13H13N+
184.0756	11	C12H10NO+
184.1123	1	C13H14N+
198.0911	3	C13H12NO+
199.0992	89	C13H13NO+
213.1145	1	C14H15NO+
214.1224	475	C14H16NO+
