Mass spectrum: 17beta-Trenbolone; LC-ESI-QFT; MS2; CE: 90; R=17500; [M+H]+
Name: 17beta-Trenbolone
Name: Trenbolone
Name: (8S,13S,14S,17S)-17-hydroxy-13-methyl-2,6,7,8,14,15,16,17-octahydro-1H-cyclopenta[a]phenanthren-3-one
Formula: C18H22O2
Exact mass: 270.1620
SMILES: [H][C@@]12CC[C@H](O)[C@@]1(C)C=CC1=C3CCC(=O)C=C3CC[C@@]21[H]
InChI: InChI=1S/C18H22O2/c1-18-9-8-14-13-5-3-12(19)10-11(13)2-4-15(14)16(18)6-7-17(18)20/h8-10,15-17,20H,2-7H2,1H3/t15-,16+,17+,18+/m1/s1
Instrument: Q Exactive Orbitrap (Thermo Scientific)
Instrument type: LC-ESI-QFT
Ms type: MS2
Ion mode: POSITIVE
Ionization: ESI
Fragmentation mode: HCD
Collision energy: 90
Resolution: 17500
Column name: Acquity BEH C18 1.7um, 2.1x150mm (Waters)
Retention time: 16.997 min
Base peak: 79.0211
Precursor m/z: 271.1693
Precursor type: [M+H]+
Precursor intensity: 7878656.625
m/z	relative intensity	assigned
53.0022	26	C3HO+
53.0386	121	C4H5+
55.0179	153	C3H3O+
55.0543	270	C4H7+
57.0336	52	C3H5O+
57.0697	9	C4H9+
65.0385	82	C5H5+
67.0542	192	C5H7+
69.0334	25	C4H5O+
69.0697	19	C5H9+
71.049	33	C4H7O+
77.0384	24	C6H5+
79.0542	548	C6H7+
81.0334	27	C5H5O+
81.0699	154	C6H9+
83.0491	578	C5H7O+
85.0646	8	C5H9O+
91.0542	999	C7H7+
93.0698	134	C7H9+
94.0412	21	C6H6O+
95.0491	314	C6H7O+
95.0855	33	C7H11+
97.0647	24	C6H9O+
103.0542	172	C8H7+
104.062	28	C8H8+
105.0699	715	C8H9+
107.0491	909	C7H7O+
107.0854	47	C8H11+
108.0566	8	C7H8O+
109.0648	78	C7H9O+
115.0542	420	C9H7+
116.0621	130	C9H8+
117.0699	412	C9H9+
118.0776	9	C9H10+
119.0489	13	C8H7O+
119.0855	99	C9H11+
121.0647	60	C8H9O+
127.0542	34	C10H7+
128.062	684	C10H8+
129.0698	692	C10H9+
130.0777	123	C10H10+
131.0491	154	C9H7O+
131.0855	249	C10H11+
132.0569	42	C9H8O+
133.0647	313	C9H9O+
134.0724	16	C9H10O+
135.0804	70	C9H11O+
141.0698	871	C11H9+
142.0777	297	C11H10+
143.0855	311	C11H11+
144.0569	223	C10H8O+
144.0932	23	C11H12+
145.0647	250	C10H9O+
145.1011	77	C11H13+
146.0725	50	C10H10O+
147.0804	73	C10H11O+
148.0882	33	C10H12O+
152.062	216	C12H8+
153.0698	477	C12H9+
154.0777	255	C12H10+
155.0855	549	C12H11+
156.0935	92	C12H12+
157.0648	528	C11H9O+
157.1011	152	C12H13+
158.0725	98	C11H10O+
158.1083	7	C12H14+
159.0805	174	C11H11O+
160.0881	7	C11H12O+
161.0961	35	C11H13O+
165.0699	850	C13H9+
166.0777	446	C13H10+
167.0855	613	C13H11+
168.0932	131	C13H12+
169.0649	101	C12H9O+
169.101	217	C13H13+
170.0726	67	C12H10O+
170.1087	31	C13H14+
171.0804	175	C12H11O+
171.1164	40	C13H15+
172.0883	26	C12H12O+
173.0961	29	C12H13O+
177.0704	34	C14H9+
178.0776	466	C14H10+
179.0855	464	C14H11+
180.0932	131	C14H12+
181.0647	89	C13H9O+
181.1011	350	C14H13+
182.0725	95	C13H10O+
182.1087	31	C14H14+
183.0804	228	C13H11O+
183.1167	88	C14H15+
184.0882	124	C13H12O+
185.0961	260	C13H13O+
185.1321	15	C14H17+
186.104	79	C13H14O+
187.111	16	C13H15O+
190.0779	45	C15H10+
191.0854	156	C15H11+
192.0932	130	C15H12+
193.1011	120	C15H13+
194.0729	31	C14H10O+
194.109	35	C15H14+
195.0805	106	C14H11O+
195.1169	90	C15H15+
196.0886	38	C14H12O+
196.1249	14	C15H16+
197.096	196	C14H13O+
197.1316	14	C15H17+
198.104	83	C14H14O+
199.1117	595	C14H15O+
200.1194	93	C14H16O+
203.0852	21	C16H11+
204.0935	40	C16H12+
205.1011	108	C16H13+
206.1092	12	C16H14+
207.1168	43	C16H15+
208.0879	11	C15H12O+
209.096	62	C15H13O+
209.1321	29	C16H17+
210.1037	32	C15H14O+
211.1118	40	C15H15O+
211.1476	9	C16H19+
212.1193	22	C15H16O+
213.1272	44	C15H17O+
214.1348	32	C15H18O+
219.1168	38	C17H15+
220.1243	16	C17H16+
221.1327	11	C17H17+
223.112	44	C16H15O+
224.1196	8	C16H16O+
225.127	19	C16H17O+
227.1426	21	C16H19O+
235.1485	7	C18H19+
237.1276	54	C17H17O+
238.135	11	C17H18O+
253.16	8	C18H21O+
