Mass spectrum: Benzylparaben; LC-ESI-QFT; MS2; CE: 90; R=17500; [M-H]-
Name: Benzylparaben
Name: benzyl 4-hydroxybenzoate
Formula: C14H12O3
Exact mass: 228.0786
SMILES: OC1=CC=C(C=C1)C(=O)OCC1=CC=CC=C1
InChI: InChI=1S/C14H12O3/c15-13-8-6-12(7-9-13)14(16)17-10-11-4-2-1-3-5-11/h1-9,15H,10H2
Instrument: Q Exactive Orbitrap (Thermo Scientific)
Instrument type: LC-ESI-QFT
Ms type: MS2
Ion mode: NEGATIVE
Ionization: ESI
Fragmentation mode: HCD
Collision energy: 90
Resolution: 17500
Column name: Acquity BEH C18 1.7um, 2.1x150mm (Waters)
Retention time: 17.501 min
Base peak: 227.0713
Precursor m/z: 227.0714
Precursor type: [M-H]-
Precursor intensity: 67703707.33398
m/z	relative intensity	assigned
53.0032	4	C3HO-
65.0034	2	C4HO-
66.0113	3	C4H2O-
67.019	8	C4H3O-
68.9982	25	C3HO2-
69.0346	26	C4H5O-
70.0061	19	C3H2O2-
71.0139	18	C3H3O2-
72.9931	11	C2HO3-
78.0112	6	C5H2O-
79.0189	14	C5H3O-
79.9904	11	C4O2-
80.9983	7	C4HO2-
82.006	81	C4H2O2-
83.0138	3	C4H3O2-
86.001	4	C3H2O3-
91.0189	9	C6H3O-
92.0268	485	C6H4O-
93.0346	15	C6H5O-
95.0139	999	C5H3O2-
97.0295	12	C5H5O2-
98.001	2	C4H2O3-
106.006	48	C6H2O2-
107.014	8	C6H3O2-
107.0502	2	C7H7O-
108.0217	977	C6H4O2-
109.0296	3	C6H5O2-
121.0296	10	C7H5O2-
123.0088	127	C6H3O3-
125.0246	2	C6H5O3-
136.0165	18	C7H4O3-
