Mass spectrum: 3-Dimethylaminophenol; LC-ESI-QFT; MS2; CE: 60; R=17500; [M+H]+
Name: 3-Dimethylaminophenol
Name: 3-(dimethylamino)phenol
Formula: C8H11NO
Exact mass: 137.0841
SMILES: CN(C)C1=CC=CC(O)=C1
InChI: InChI=1S/C8H11NO/c1-9(2)7-4-3-5-8(10)6-7/h3-6,10H,1-2H3
Instrument: Q Exactive Orbitrap (Thermo Scientific)
Instrument type: LC-ESI-QFT
Ms type: MS2
Ion mode: POSITIVE
Ionization: ESI
Fragmentation mode: HCD
Collision energy: 60
Resolution: 17500
Column name: Acquity BEH C18 1.7um, 2.1x150mm (Waters)
Retention time: 9.936 min
Base peak: 79.0211
Precursor m/z: 138.0913
Precursor type: [M+H]+
Precursor intensity: 13265003.96875
m/z	relative intensity	assigned
53.0385	2	C4H5+
77.0385	1	C6H5+
78.0463	20	C6H6+
79.0542	46	C6H7+
80.0495	3	C5H6N+
80.062	1	C6H8+
86.0036	2	C6N+
91.0541	2	C7H7+
93.0572	1	C6H7N+
94.0651	15	C6H8N+
95.0491	7	C6H7O+
95.0729	7	C6H9N+
96.0445	1	C5H6NO+
105.0574	1	C7H7N+
106.0414	12	C7H6O+
106.0651	108	C7H8N+
107.0491	4	C7H7O+
107.0729	19	C7H9N+
108.0443	12	C6H6NO+
121.0648	3	C8H9O+
122.0601	47	C7H8NO+
123.0678	999	C7H9NO+
138.0913	97	C8H12NO+
