Mass spectrum: Chlorpromazine; LC-ESI-QFT; MS2; CE: 60; R=17500; [M-H]-
Name: Chlorpromazine
Name: 3-(2-chlorophenothiazin-10-yl)-N,N-dimethylpropan-1-amine
Formula: C17H19ClN2S
Exact mass: 318.0957
SMILES: CN(C)CCCN1C2=C(SC3=C1C=C(Cl)C=C3)C=CC=C2
InChI: InChI=1S/C17H19ClN2S/c1-19(2)10-5-11-20-14-6-3-4-7-16(14)21-17-9-8-13(18)12-15(17)20/h3-4,6-9,12H,5,10-11H2,1-2H3
Instrument: Q Exactive Orbitrap (Thermo Scientific)
Instrument type: LC-ESI-QFT
Ms type: MS2
Ion mode: NEGATIVE
Ionization: ESI
Fragmentation mode: HCD
Collision energy: 60
Resolution: 17500
Column name: Acquity BEH C18 1.7um, 2.1x150mm (Waters)
Retention time: 11.646 min
Base peak: 271.0838
Precursor m/z: 317.0885
Precursor type: [M-H]-
Precursor intensity: 441668.1953125
m/z	relative intensity	assigned
57.0347	507	ClH8N-
65.0033	999	CH4ClN-
107.0376	456	C3H8ClN2-
