Mass spectrum: Cyhalofop-butyl; LC-ESI-QFT; MS2; CE: 90; R=17500; [M+H]+
Name: Cyhalofop-butyl
Formula: C20H20FNO4
Exact mass: 357.1376
SMILES: CCCCOC(=O)[C@@H](C)OC1=CC=C(OC2=C(F)C=C(C=C2)C#N)C=C1
InChI: InChI=1S/C20H20FNO4/c1-3-4-11-24-20(23)14(2)25-16-6-8-17(9-7-16)26-19-10-5-15(13-22)12-18(19)21/h5-10,12,14H,3-4,11H2,1-2H3/t14-/m1/s1
Instrument: Q Exactive Orbitrap (Thermo Scientific)
Instrument type: LC-ESI-QFT
Ms type: MS2
Ion mode: POSITIVE
Ionization: ESI
Fragmentation mode: HCD
Collision energy: 90
Resolution: 17500
Column name: Acquity BEH C18 1.7um, 2.1x150mm (Waters)
Retention time: 15.694 min
Base peak: 79.0212
Precursor m/z: 358.1449
Precursor type: [M+H]+
Precursor intensity: 11319641.75
m/z	relative intensity	assigned
51.023	19	C4H3+
53.0023	11	C3HO+
53.0387	26	C4H5+
55.0542	11	C4H7+
59.0492	999	C3H7O+
71.0291	27	C4H4F+
74.0964	4	C4H12N+
75.0229	51	C6H3+
79.0543	48	C6H7+
91.0543	187	C7H7+
93.07	53	C7H9+
95.0293	19	C6H4F+
95.0492	115	C6H7O+
97.0448	30	C6H6F+
99.0242	5	C5H4FO+
105.0447	33	FH8NO4+
105.07	15	C8H9+
107.0492	214	C7H7O+
111.0441	8	C6H7O2+
113.0398	170	C6H6FO+
115.0543	27	C9H7+
116.062	17	C9H8+
119.0492	8	C8H7O+
119.0852	4	C9H11+
121.0285	8	C7H5O2+
121.0649	86	C8H9O+
122.0402	3	C7H5FN+
123.0242	476	C7H4FO+
129.0697	9	C10H9+
131.0491	10	C9H7O+
131.0855	12	C10H11+
133.0647	6	C9H9O+
134.0362	14	C8H6O2+
135.0803	4	C9H11O+
140.0507	12	C7H7FNO+
141.07	11	C11H9+
144.0569	34	C10H8O+
149.0598	85	C9H9O2+
158.0364	8	C10H6O2+
158.0725	17	C11H10O+
159.0805	33	C11H11O+
161.0598	4	C10H9O2+
165.0546	11	C9H9O3+
169.0761	5	C5H12FNO4+
173.0601	8	C11H9O2+
177.0909	4	C11H13O2+
190.0626	38	C11H10O3+
201.091	14	C13H13O2+
