Mass spectrum: 6-Pentyl-2H-pyran-2-one; LC-ESI-QFT; MS2; CE: 75; R=17500; [M+H]+
Name: 6-Pentyl-2H-pyran-2-one
Name: 6-pentylpyran-2-one
Formula: C10H14O2
Exact mass: 166.0994
SMILES: CCCCCC1=CC=CC(=O)O1
InChI: InChI=1S/C10H14O2/c1-2-3-4-6-9-7-5-8-10(11)12-9/h5,7-8H,2-4,6H2,1H3
Instrument: Q Exactive Orbitrap (Thermo Scientific)
Instrument type: LC-ESI-QFT
Ms type: MS2
Ion mode: POSITIVE
Ionization: ESI
Fragmentation mode: HCD
Collision energy: 75
Resolution: 17500
Column name: Acquity BEH C18 1.7um, 2.1x150mm (Waters)
Retention time: 16.672 min
Base peak: 79.0211
Precursor m/z: 167.1067
Precursor type: [M+H]+
Precursor intensity: 1491067.90625
m/z	relative intensity	assigned
51.0231	17	C4H3+
53.0022	60	C3HO+
53.0387	88	C4H5+
55.0179	378	C3H3O+
55.0543	396	C4H7+
57.0335	59	C3H5O+
65.0386	634	C5H5+
67.0542	957	C5H7+
69.0335	445	C4H5O+
69.0698	71	C5H9+
71.0494	21	C4H7O+
79.0179	103	C5H3O+
79.0542	647	C6H7+
81.0335	30	C5H5O+
81.0699	258	C6H9+
82.0413	31	C5H6O+
83.0491	524	C5H7O+
91.0542	127	C7H7+
93.0335	140	C6H5O+
93.07	174	C7H9+
95.0491	147	C6H7O+
97.0285	999	C5H5O2+
105.0699	35	C8H9+
107.0492	158	C7H7O+
109.0286	36	C6H5O2+
110.0363	72	C6H6O2+
121.0651	16	C8H9O+
167.1066	82	C10H15O2+
