Mass spectrum: 21-Hydroxyprogesterone; LC-ESI-QFT; MS2; CE: 90; R=17500; [M+H]+
Name: 21-Hydroxyprogesterone
Name: Desoxycortone
Name: (8S,9S,10R,13S,14S,17S)-17-(2-hydroxyacetyl)-10,13-dimethyl-1,2,6,7,8,9,11,12,14,15,16,17-dodecahydrocyclopenta[a]phenanthren-3-one
Formula: C21H30O3
Exact mass: 330.2195
SMILES: C[C@]12CC[C@H]3[C@@H](CCC4=CC(=O)CC[C@]34C)[C@@H]1CC[C@@H]2C(=O)CO
InChI: InChI=1S/C21H30O3/c1-20-9-7-14(23)11-13(20)3-4-15-16-5-6-18(19(24)12-22)21(16,2)10-8-17(15)20/h11,15-18,22H,3-10,12H2,1-2H3/t15-,16-,17-,18+,20-,21-/m0/s1
Instrument: Q Exactive Orbitrap (Thermo Scientific)
Instrument type: LC-ESI-QFT
Ms type: MS2
Ion mode: POSITIVE
Ionization: ESI
Fragmentation mode: HCD
Collision energy: 90
Resolution: 17500
Column name: Acquity BEH C18 1.7um, 2.1x150mm (Waters)
Retention time: 17.832 min
Base peak: 79.0211
Precursor m/z: 331.2268
Precursor type: [M+H]+
Precursor intensity: 5153211
m/z	relative intensity	assigned
53.0022	30	C3HO+
53.0386	90	C4H5+
55.0179	101	C3H3O+
55.0542	92	C4H7+
57.0336	13	C3H5O+
59.0491	11	C3H7O+
61.0284	3	C2H5O2+
65.0386	56	C5H5+
66.0464	8	C5H6+
67.0542	230	C5H7+
69.0335	26	C4H5O+
69.0698	112	C5H9+
71.0491	7	C4H7O+
77.0384	18	C6H5+
79.0542	724	C6H7+
81.0699	528	C6H9+
82.0415	4	C5H6O+
83.0491	97	C5H7O+
91.0542	353	C7H7+
93.0699	147	C7H9+
94.0413	28	C6H6O+
95.0492	140	C6H7O+
95.0855	97	C7H11+
97.0648	999	C6H9O+
103.0542	29	C8H7+
105.0699	293	C8H9+
107.0492	29	C7H7O+
107.0855	47	C8H11+
108.0569	15	C7H8O+
109.0648	848	C7H9O+
111.0805	9	C7H11O+
115.0543	37	C9H7+
116.062	16	C9H8+
117.0699	83	C9H9+
119.0856	111	C9H11+
121.0648	37	C8H9O+
121.1012	13	C9H13+
123.0804	127	C8H11O+
128.062	57	C10H8+
129.0699	78	C10H9+
130.0777	36	C10H10+
131.0856	82	C10H11+
133.0651	6	C9H9O+
133.1012	32	C10H13+
135.0805	7	C9H11O+
137.096	5	C9H13O+
141.0698	45	C11H9+
142.0778	49	C11H10+
143.0855	64	C11H11+
144.0932	18	C11H12+
145.065	3	C10H9O+
145.1011	64	C11H13+
146.1084	3	C11H14+
147.0803	13	C10H11O+
147.1167	16	C11H15+
148.0883	8	C10H12O+
149.0966	4	C10H13O+
153.0696	19	C12H9+
154.0776	20	C12H10+
155.0856	42	C12H11+
156.0936	25	C12H12+
157.1011	22	C12H13+
158.1088	4	C12H14+
159.0804	4	C11H11O+
159.1168	17	C12H15+
161.096	4	C11H13O+
163.1116	8	C11H15O+
165.07	18	C13H9+
166.0774	6	C13H10+
167.0857	22	C13H11+
168.0933	14	C13H12+
169.1011	27	C13H13+
170.109	5	C13H14+
171.1167	10	C13H15+
173.1328	3	C13H17+
179.0855	10	C14H11+
180.0932	5	C14H12+
181.1008	18	C14H13+
182.1091	5	C14H14+
183.1169	12	C14H15+
185.1325	8	C14H17+
193.101	6	C15H13+
195.1167	9	C15H15+
196.1243	4	C15H16+
197.1327	9	C15H17+
207.1171	4	C16H15+
209.1324	3	C16H17+
237.164	3	C18H21+
