Mass spectrum: 2,4,4`-Trihydroxybenzophenone; LC-ESI-QFT; MS2; CE: 45; R=17500; [M-H]-
Name: 2,4,4'-Trihydroxybenzophenone
Name: (2,4-dihydroxyphenyl)-(4-hydroxyphenyl)methanone
Formula: C13H10O4
Exact mass: 230.0579
SMILES: OC1=CC=C(C=C1)C(=O)C1=CC=C(O)C=C1O
InChI: InChI=1S/C13H10O4/c14-9-3-1-8(2-4-9)13(17)11-6-5-10(15)7-12(11)16/h1-7,14-16H
Instrument: Q Exactive Orbitrap (Thermo Scientific)
Instrument type: LC-ESI-QFT
Ms type: MS2
Ion mode: NEGATIVE
Ionization: ESI
Fragmentation mode: HCD
Collision energy: 45
Resolution: 17500
Column name: Acquity BEH C18 1.7um, 2.1x150mm (Waters)
Retention time: 15.346 min
Base peak: 229.0505
Precursor m/z: 229.0506
Precursor type: [M-H]-
Precursor intensity: 39096704.79395
m/z	relative intensity	assigned
65.0031	5	C4HO-
65.0396	4	C5H5-
67.0189	2	C4H3O-
89.04	1	C7H5-
91.019	819	C6H3O-
93.0346	999	C6H5O-
107.0136	4	C6H3O2-
109.0295	98	C6H5O2-
117.0346	33	C8H5O-
135.0088	997	C7H3O3-
137.0242	1	C7H5O3-
141.0709	2	C11H9-
143.0502	9	C10H7O-
145.0295	1	C9H5O2-
153.0193	247	C7H5O4-
156.0583	3	C11H8O-
157.0659	9	C11H9O-
159.0447	3	C10H7O2-
167.0506	1	C12H7O-
183.0448	2	C12H7O2-
184.0529	11	C12H8O2-
185.0607	111	C12H9O2-
187.0398	11	C11H7O3-
229.0505	323	C13H9O4-
