Mass spectrum: Acephate; LC-ESI-QFT; MS2; CE: 75; R=17500; [M+H]+
Name: Acephate
Name: N-[methoxy(methylsulfanyl)phosphoryl]acetamide
Formula: C4H10NO3PS
Exact mass: 183.0119
SMILES: COP(=O)(NC(C)=O)SC
InChI: InChI=1S/C4H10NO3PS/c1-4(6)5-9(7,8-2)10-3/h1-3H3,(H,5,6,7)
Instrument: Q Exactive Orbitrap (Thermo Scientific)
Instrument type: LC-ESI-QFT
Ms type: MS2
Ion mode: POSITIVE
Ionization: ESI
Fragmentation mode: HCD
Collision energy: 75
Resolution: 17500
Column name: Acquity BEH C18 1.7um, 2.1x150mm (Waters)
Retention time: 5.780 min
Base peak: 79.0211
Precursor m/z: 184.0192
Precursor type: [M+H]+
Precursor intensity: 788552.25
m/z	relative intensity	assigned
61.0107	798	C2H5S+
79.0213	999	C2H7OS+
