Mass spectrum: 2`,4`,5`-Trihydroxybutyrophenone; LC-ESI-QFT; MS2; CE: 30; R=17500; [M-H]-
Name: 2',4',5'-Trihydroxybutyrophenone
Name: 2,4,5-Trihydroxybutyrophenone
Name: 1-(2,4,5-trihydroxyphenyl)butan-1-one
Formula: C10H12O4
Exact mass: 196.0736
SMILES: CCCC(=O)C1=CC(O)=C(O)C=C1O
InChI: InChI=1S/C10H12O4/c1-2-3-7(11)6-4-9(13)10(14)5-8(6)12/h4-5,12-14H,2-3H2,1H3
Instrument: Q Exactive Orbitrap (Thermo Scientific)
Instrument type: LC-ESI-QFT
Ms type: MS2
Ion mode: NEGATIVE
Ionization: ESI
Fragmentation mode: HCD
Collision energy: 30
Resolution: 17500
Column name: Acquity BEH C18 1.7um, 2.1x150mm (Waters)
Retention time: 15.334 min
Base peak: 112.9857
Precursor m/z: 195.0663
Precursor type: [M-H]-
Precursor intensity: 5320859.32373
m/z	relative intensity	assigned
81.0346	1	C5H5O-
83.014	1	C4H3O2-
95.0138	2	C5H3O2-
97.0294	2	C5H5O2-
107.0139	3	C6H3O2-
122.0373	1	C7H6O2-
123.0087	4	C6H3O3-
123.0817	2	C8H11O-
124.0166	14	C6H4O3-
125.0244	106	C6H5O3-
151.0037	38	C7H3O4-
151.0764	2	C9H11O2-
152.0114	5	C7H4O4-
153.0557	3	C8H9O3-
166.0273	15	C8H6O4-
167.0716	3	C9H11O3-
177.0552	3	C10H9O3-
195.0663	999	C10H11O4-
