Mass spectrum: m-Cumenyl methylcarbamate; LC-ESI-QFT; MS2; CE: 30; R=17500; [M+H]+
Name: m-Cumenyl methylcarbamate
Name: (3-propan-2-ylphenyl) N-methylcarbamate
Formula: C11H15NO2
Exact mass: 193.1103
SMILES: CNC(=O)OC1=CC=CC(=C1)C(C)C
InChI: InChI=1S/C11H15NO2/c1-8(2)9-5-4-6-10(7-9)14-11(13)12-3/h4-8H,1-3H3,(H,12,13)
Instrument: Q Exactive Orbitrap (Thermo Scientific)
Instrument type: LC-ESI-QFT
Ms type: MS2
Ion mode: POSITIVE
Ionization: ESI
Fragmentation mode: HCD
Collision energy: 30
Resolution: 17500
Column name: Acquity BEH C18 1.7um, 2.1x150mm (Waters)
Retention time: 17.718 min
Base peak: 79.0212
Precursor m/z: 194.1176
Precursor type: [M+H]+
Precursor intensity: 19215392.96875
m/z	relative intensity	assigned
107.073	1	C7H9N+
121.0883	8	C8H11N+
122.0964	5	C8H12N+
134.0597	4	C8H8NO+
148.0754	2	C9H10NO+
151.0628	24	C8H9NO2+
166.0862	307	C9H12NO2+
178.0865	1	C10H12NO2+
179.094	157	C10H13NO2+
194.1175	999	C11H16NO2+
