Mass spectrum: 2-Ethylhexylparaben; LC-ESI-QFT; MS2; CE: 75; R=17500; [M-H]-
Name: 2-Ethylhexylparaben
Name: 2-ethylhexyl 4-hydroxybenzoate
Formula: C15H22O3
Exact mass: 250.1569
SMILES: CCCCC(CC)COC(=O)C1=CC=C(O)C=C1
InChI: InChI=1S/C15H22O3/c1-3-5-6-12(4-2)11-18-15(17)13-7-9-14(16)10-8-13/h7-10,12,16H,3-6,11H2,1-2H3
Instrument: Q Exactive Orbitrap (Thermo Scientific)
Instrument type: LC-ESI-QFT
Ms type: MS2
Ion mode: NEGATIVE
Ionization: ESI
Fragmentation mode: HCD
Collision energy: 75
Resolution: 17500
Column name: Acquity BEH C18 1.7um, 2.1x150mm (Waters)
Retention time: 19.726 min
Base peak: 249.1495
Precursor m/z: 249.1496
Precursor type: [M-H]-
Precursor intensity: 143688453.5859
m/z	relative intensity	assigned
53.0032	3	C3HO-
65.0033	5	C4HO-
65.0397	11	C5H5-
67.0191	7	C4H3O-
68.9982	26	C3HO2-
69.0346	20	C4H5O-
70.0061	22	C3H2O2-
71.0139	12	C3H3O2-
71.0501	2	C4H7O-
72.9932	7	C2HO3-
78.0113	5	C5H2O-
79.0189	21	C5H3O-
79.9904	10	C4O2-
80.9982	7	C4HO2-
82.0061	72	C4H2O2-
83.0139	3	C4H3O2-
83.0503	3	C5H7O-
86.001	3	C3H2O3-
91.019	202	C6H3O-
92.0268	582	C6H4O-
93.0346	999	C6H5O-
95.0139	887	C5H3O2-
97.0296	11	C5H5O2-
98.0011	5	C4H2O3-
106.0061	54	C6H2O2-
107.014	7	C6H3O2-
108.0217	842	C6H4O2-
109.0295	2	C6H5O2-
111.0815	3	C7H11O-
119.0139	13	C7H3O2-
121.0295	93	C7H5O2-
123.0088	115	C6H3O3-
125.0976	9	C8H13O-
127.1129	138	C8H15O-
136.0166	92	C7H4O3-
137.0245	37	C7H5O3-
149.0247	10	C8H5O3-
