Mass spectrum: N-Benzyl-N-hydroxy-1-phenylmethanamine; LC-ESI-QFT; MS2; CE: 30; R=17500; [M+H]+
Name: N-Benzyl-N-hydroxy-1-phenylmethanamine
Name: N,N-dibenzylhydroxylamine
Formula: C14H15NO
Exact mass: 213.1154
SMILES: ON(CC1=CC=CC=C1)CC1=CC=CC=C1
InChI: InChI=1S/C14H15NO/c16-15(11-13-7-3-1-4-8-13)12-14-9-5-2-6-10-14/h1-10,16H,11-12H2
Instrument: Q Exactive Orbitrap (Thermo Scientific)
Instrument type: LC-ESI-QFT
Ms type: MS2
Ion mode: POSITIVE
Ionization: ESI
Fragmentation mode: HCD
Collision energy: 30
Resolution: 17500
Column name: Acquity BEH C18 1.7um, 2.1x150mm (Waters)
Retention time: 18.351 min
Base peak: 79.0211
Precursor m/z: 214.1226
Precursor type: [M+H]+
Precursor intensity: 23445322.4375
m/z	relative intensity	assigned
92.0495	11	C6H6N+
93.0576	1	C6H7N+
121.0648	1	C8H9O+
122.0597	4	C7H8NO+
122.0726	8	C8H10O+
136.0758	37	C8H10NO+
137.0835	168	C8H11NO+
167.0733	2	C12H9N+
182.0965	11	C13H12N+
183.1043	12	C13H13N+
199.0995	22	C13H13NO+
213.1147	1	C14H15NO+
214.1225	999	C14H16NO+
