Mass spectrum: N-(3-Amino-4-methoxyphenyl)acetamide; LC-ESI-QFT; MS2; CE: 30; R=17500; [M+H]+
Name: N-(3-Amino-4-methoxyphenyl)acetamide
Formula: C9H12N2O2
Exact mass: 180.0899
SMILES: COC1=C(N)C=C(NC(C)=O)C=C1
InChI: InChI=1S/C9H12N2O2/c1-6(12)11-7-3-4-9(13-2)8(10)5-7/h3-5H,10H2,1-2H3,(H,11,12)
Instrument: Q Exactive Orbitrap (Thermo Scientific)
Instrument type: LC-ESI-QFT
Ms type: MS2
Ion mode: POSITIVE
Ionization: ESI
Fragmentation mode: HCD
Collision energy: 30
Resolution: 17500
Column name: Acquity BEH C18 1.7um, 2.1x150mm (Waters)
Retention time: 13.181 min
Base peak: 79.0211
Precursor m/z: 181.0972
Precursor type: [M+H]+
Precursor intensity: 10108752.71875
m/z	relative intensity	assigned
92.0494	1	C6H6N+
93.0573	2	C6H7N+
108.0444	34	C6H6NO+
109.0521	7	C6H7NO+
110.06	78	C6H8NO+
111.0441	1	C6H7O2+
136.0757	311	C8H10NO+
137.0835	1	C8H11NO+
138.0913	371	C8H12NO+
153.0662	1	C7H9N2O2+
164.0706	59	C9H10NO2+
181.0971	999	C9H13N2O2+
