Mass spectrum: 2`,4`,5`-Trihydroxybutyrophenone; LC-ESI-QFT; MS2; CE: 15; R=17500; [M-H]-
Name: 2',4',5'-Trihydroxybutyrophenone
Name: 2,4,5-Trihydroxybutyrophenone
Name: 1-(2,4,5-trihydroxyphenyl)butan-1-one
Formula: C10H12O4
Exact mass: 196.0736
SMILES: CCCC(=O)C1=CC(O)=C(O)C=C1O
InChI: InChI=1S/C10H12O4/c1-2-3-7(11)6-4-9(13)10(14)5-8(6)12/h4-5,12-14H,2-3H2,1H3
Instrument: Q Exactive Orbitrap (Thermo Scientific)
Instrument type: LC-ESI-QFT
Ms type: MS2
Ion mode: NEGATIVE
Ionization: ESI
Fragmentation mode: HCD
Collision energy: 15
Resolution: 17500
Column name: Acquity BEH C18 1.7um, 2.1x150mm (Waters)
Retention time: 15.334 min
Base peak: 112.9857
Precursor m/z: 195.0663
Precursor type: [M-H]-
Precursor intensity: 5109812.259277
m/z	relative intensity	assigned
81.0346	1	C5H5O-
107.0139	1	C6H3O2-
123.009	2	C6H3O3-
124.0166	7	C6H4O3-
125.0245	52	C6H5O3-
151.0037	19	C7H3O4-
151.0767	2	C9H11O2-
152.0117	2	C7H4O4-
153.0562	1	C8H9O3-
166.0271	7	C8H6O4-
167.0715	1	C9H11O3-
177.0557	1	C10H9O3-
195.0663	999	C10H11O4-
