Mass spectrum: Fadrozole; LC-ESI-QFT; MS2; CE: 45; R=17500; [M+H]+
Name: Fadrozole
Name: 4-(5,6,7,8-tetrahydroimidazo[1,5-a]pyridin-5-yl)benzonitrile
Formula: C14H13N3
Exact mass: 223.1109
SMILES: N#CC1=CC=C(C=C1)C1CCCC2=CN=CN12
InChI: InChI=1S/C14H13N3/c15-8-11-4-6-12(7-5-11)14-3-1-2-13-9-16-10-17(13)14/h4-7,9-10,14H,1-3H2
Instrument: Q Exactive Orbitrap (Thermo Scientific)
Instrument type: LC-ESI-QFT
Ms type: MS2
Ion mode: POSITIVE
Ionization: ESI
Fragmentation mode: HCD
Collision energy: 45
Resolution: 17500
Column name: Acquity BEH C18 1.7um, 2.1x150mm (Waters)
Retention time: 17.960 min
Base peak: 79.0212
Precursor m/z: 224.1182
Precursor type: [M+H]+
Precursor intensity: 55405059.21875
m/z	relative intensity	assigned
65.0385	5	C5H5+
66.0337	1	C4H4N+
77.0387	1	C6H5+
79.0542	14	C6H7+
80.0494	6	C5H6N+
82.0651	3	C5H8N+
90.0338	3	C6H4N+
92.0494	1	C6H6N+
93.0572	1	C6H7N+
94.0651	10	C6H8N+
95.0492	2	C4H5N3+
104.0494	19	C7H6N+
105.0449	2	C6H5N2+
106.0651	72	C7H8N+
107.0603	4	C6H7N2+
107.0729	4	C7H9N+
115.0542	2	C9H7+
118.0649	3	C8H8N+
119.0603	9	C7H7N2+
121.076	24	C7H9N2+
129.0699	1	C10H9+
130.065	1	C9H8N+
131.0603	39	C8H7N2+
132.0681	9	C8H8N2+
140.0494	1	C10H6N+
142.0651	10	C10H8N+
143.0604	10	C9H7N2+
143.0729	1	C10H9N+
146.0712	2	C8H8N3+
147.079	5	C8H9N3+
156.0808	4	C11H10N+
159.0918	3	C10H11N2+
166.0652	5	C12H8N+
167.0727	3	C12H9N+
168.0682	7	C11H8N2+
169.0761	1	C11H9N2+
180.0806	10	C13H10N+
181.0759	2	C12H9N2+
182.0838	10	C12H10N2+
183.0917	31	C12H11N2+
184.0869	9	C11H10N3+
184.099	1	C12H12N2+
192.068	6	C13H8N2+
195.0917	3	C13H11N2+
196.0999	1	C13H12N2+
197.1073	7	C13H13N2+
205.0758	1	C14H9N2+
206.0839	11	C14H10N2+
207.0917	27	C14H11N2+
208.087	10	C13H10N3+
208.0994	4	C14H12N2+
209.0947	45	C13H11N3+
222.1026	8	C14H12N3+
223.1106	9	C14H13N3+
224.1181	999	C14H14N3+
