Mass spectrum: 5-Amino-2-methylbenzenesulfonic acid; LC-ESI-QFT; MS2; CE: 15; R=17500; [M-H]-
Name: 5-Amino-2-methylbenzenesulfonic acid
Formula: C7H9NO3S
Exact mass: 187.0303
SMILES: CC1=CC=C(N)C=C1S(O)(=O)=O
InChI: InChI=1S/C7H9NO3S/c1-5-2-3-6(8)4-7(5)12(9,10)11/h2-4H,8H2,1H3,(H,9,10,11)
Instrument: Q Exactive Orbitrap (Thermo Scientific)
Instrument type: LC-ESI-QFT
Ms type: MS2
Ion mode: NEGATIVE
Ionization: ESI
Fragmentation mode: HCD
Collision energy: 15
Resolution: 17500
Column name: Acquity BEH C18 1.7um, 2.1x150mm (Waters)
Retention time: 6.262 min
Base peak: 186.023
Precursor m/z: 186.023
Precursor type: [M-H]-
Precursor intensity: 5794796.282959
m/z	relative intensity	assigned
79.9572	30	O3S-
122.0612	10	C7H8NO-
186.023	999	C7H8NO3S-
