Mass spectrum: Butoxycarboxim; LC-ESI-QFT; MS2; CE: 90; R=17500; [M+H]+
Name: Butoxycarboxim
Name: [(E)-3-methylsulfonylbutan-2-ylideneamino] N-methylcarbamate
Formula: C7H14N2O4S
Exact mass: 222.0674
SMILES: CNC(=O)O\N=C(/C)C(C)S(C)(=O)=O
InChI: InChI=1S/C7H14N2O4S/c1-5(6(2)14(4,11)12)9-13-7(10)8-3/h6H,1-4H3,(H,8,10)/b9-5+
Instrument: Q Exactive Orbitrap (Thermo Scientific)
Instrument type: LC-ESI-QFT
Ms type: MS2
Ion mode: POSITIVE
Ionization: ESI
Fragmentation mode: HCD
Collision energy: 90
Resolution: 17500
Column name: Acquity BEH C18 1.7um, 2.1x150mm (Waters)
Retention time: 17.855 min
Base peak: 79.0211
Precursor m/z: 223.0747
Precursor type: [M+H]+
Precursor intensity: 28230260.25
m/z	relative intensity	assigned
50.0152	3	C4H2+
51.0228	7	C4H3+
53.0022	17	C3HO+
53.0386	324	C4H5+
55.0178	22	C3H3O+
65.0385	818	C5H5+
67.0541	5	C5H7+
68.997	123	C3HO2+
75.0228	11	C6H3+
77.0385	258	C6H5+
79.0541	4	C6H7+
80.0257	2	C5H4O+
81.0334	32	C5H5O+
81.0697	4	C6H9+
89.0386	2	C7H5+
91.0542	4	C7H7+
93.0335	264	C6H5O+
94.0413	38	C6H6O+
95.0491	999	C6H7O+
97.0535	1	C5H7NO+
98.0362	5	C5H6O2+
101.0386	7	H9N2O2S+
102.0464	27	H10N2O2S+
103.0542	650	H11N2O2S+
105.0336	87	C7H5O+
105.0447	350	C6H5N2+
109.0648	15	C7H9O+
111.044	193	C6H7O2+
115.0541	3	CH11N2O2S+
118.0411	3	H10N2O3S+
121.0284	449	C7H5O2+
125.0597	22	C7H9O2+
128.062	7	C2H12N2O2S+
129.0334	597	CH9N2O3S+
139.0389	38	C7H7O3+
141.0696	10	C3H13N2O2S+
147.044	4	CH11N2O4S+
151.0542	4	C4H11N2O2S+
152.062	206	C4H12N2O2S+
153.0698	10	C4H13N2O2S+
165.0698	160	C5H13N2O2S+
166.0776	40	C5H14N2O2S+
167.0854	65	C5H15N2O2S+
169.0646	25	C4H13N2O3S+
176.062	48	C6H12N2O2S+
177.0697	26	C6H13N2O2S+
178.0776	200	C6H14N2O2S+
179.0602	6	C6H13NO3S+
179.0851	2	C6H15N2O2S+
181.0646	4	C5H13N2O3S+
194.0725	2	C6H14N2O3S+
195.0798	1	C6H15N2O3S+
223.0752	164	C7H15N2O4S+
