Mass spectrum: 2-Hydroxy-4-methoxybenzophenone; LC-ESI-QFT; MS2; CE: 60; R=17500; [M+H]+
Name: 2-Hydroxy-4-methoxybenzophenone
Name: Oxybenzone
Name: (2-hydroxy-4-methoxyphenyl)-phenylmethanone
Formula: C14H12O3
Exact mass: 228.0786
SMILES: COC1=CC=C(C(=O)C2=CC=CC=C2)C(O)=C1
InChI: InChI=1S/C14H12O3/c1-17-11-7-8-12(13(15)9-11)14(16)10-5-3-2-4-6-10/h2-9,15H,1H3
Instrument: Q Exactive Orbitrap (Thermo Scientific)
Instrument type: LC-ESI-QFT
Ms type: MS2
Ion mode: POSITIVE
Ionization: ESI
Fragmentation mode: HCD
Collision energy: 60
Resolution: 17500
Column name: Acquity BEH C18 1.7um, 2.1x150mm (Waters)
Retention time: 18.510 min
Base peak: 79.0212
Precursor m/z: 229.0859
Precursor type: [M+H]+
Precursor intensity: 1066099.125
m/z	relative intensity	assigned
51.0229	2	C4H3+
53.0386	30	C4H5+
65.0386	11	C5H5+
67.0542	7	C5H7+
68.9972	1	C3HO2+
77.0386	10	C6H5+
94.0412	3	C6H6O+
95.0491	197	C6H7O+
105.0335	431	C7H5O+
108.0205	15	C6H4O2+
110.0363	2	C6H6O2+
111.0442	1	C6H7O2+
123.0441	19	C7H7O2+
136.0153	3	C7H4O3+
141.0546	6	C7H9O3+
151.039	999	C8H7O3+
172.0902	2	C12H12O+
229.0859	2	C14H13O3+
