Mass spectrum: 2`,4`,5`-Trihydroxybutyrophenone; LC-ESI-QFT; MS2; CE: 90; R=17500; [M+H]+
Name: 2',4',5'-Trihydroxybutyrophenone
Name: 2,4,5-Trihydroxybutyrophenone
Name: 1-(2,4,5-trihydroxyphenyl)butan-1-one
Formula: C10H12O4
Exact mass: 196.0736
SMILES: CCCC(=O)C1=CC(O)=C(O)C=C1O
InChI: InChI=1S/C10H12O4/c1-2-3-7(11)6-4-9(13)10(14)5-8(6)12/h4-5,12-14H,2-3H2,1H3
Instrument: Q Exactive Orbitrap (Thermo Scientific)
Instrument type: LC-ESI-QFT
Ms type: MS2
Ion mode: POSITIVE
Ionization: ESI
Fragmentation mode: HCD
Collision energy: 90
Resolution: 17500
Column name: Acquity BEH C18 1.7um, 2.1x150mm (Waters)
Retention time: 14.071 min
Base peak: 79.0212
Precursor m/z: 197.0808
Precursor type: [M+H]+
Precursor intensity: 2367981.25
m/z	relative intensity	assigned
51.023	3	C4H3+
53.0023	9	C3HO+
53.0386	68	C4H5+
55.0178	24	C3H3O+
55.0543	40	C4H7+
65.0386	311	C5H5+
66.0464	63	C5H6+
67.0542	79	C5H7+
68.0256	32	C4H4O+
68.9971	54	C3HO2+
69.0335	35	C4H5O+
77.0384	9	C6H5+
78.0464	113	C6H6+
79.0179	41	C5H3O+
79.0542	58	C6H7+
81.0335	80	C5H5O+
81.07	14	C6H9+
83.0491	165	C5H7O+
85.0283	8	C4H5O2+
91.0541	6	C7H7+
92.0258	19	C6H4O+
93.0335	62	C6H5O+
94.0413	68	C6H6O+
95.0492	437	C6H7O+
96.0206	28	C5H4O2+
96.057	48	C6H8O+
97.0284	38	C5H5O2+
97.0648	34	C6H9O+
105.0333	9	C7H5O+
107.0127	35	C6H3O2+
107.0491	18	C7H7O+
108.057	74	C7H8O+
109.0285	119	C6H5O2+
109.0648	173	C7H9O+
110.0363	35	C6H6O2+
111.0441	823	C6H7O2+
121.0285	32	C7H5O2+
122.0363	28	C7H6O2+
123.0441	999	C7H7O2+
124.0519	75	C7H8O2+
125.0234	6	C6H5O3+
125.0597	127	C7H9O2+
126.0674	17	C7H10O2+
135.044	3	C8H7O2+
137.0233	11	C7H5O3+
137.0598	13	C8H9O2+
138.0676	238	C8H10O2+
139.039	506	C7H7O3+
149.0233	6	C8H5O3+
151.0388	3	C8H7O3+
153.0547	20	C8H9O3+
154.0624	44	C8H10O3+
167.0339	107	C8H7O4+
169.086	3	C9H13O3+
