Mass spectrum: 6-Pentyl-2H-pyran-2-one; LC-ESI-QFT; MS2; CE: 45; R=17500; [M+H]+
Name: 6-Pentyl-2H-pyran-2-one
Name: 6-pentylpyran-2-one
Formula: C10H14O2
Exact mass: 166.0994
SMILES: CCCCCC1=CC=CC(=O)O1
InChI: InChI=1S/C10H14O2/c1-2-3-4-6-9-7-5-8-10(11)12-9/h5,7-8H,2-4,6H2,1H3
Instrument: Q Exactive Orbitrap (Thermo Scientific)
Instrument type: LC-ESI-QFT
Ms type: MS2
Ion mode: POSITIVE
Ionization: ESI
Fragmentation mode: HCD
Collision energy: 45
Resolution: 17500
Column name: Acquity BEH C18 1.7um, 2.1x150mm (Waters)
Retention time: 16.672 min
Base peak: 79.0211
Precursor m/z: 167.1067
Precursor type: [M+H]+
Precursor intensity: 2021875.75
m/z	relative intensity	assigned
53.0386	6	C4H5+
55.0179	23	C3H3O+
55.0542	69	C4H7+
57.0335	11	C3H5O+
65.0386	31	C5H5+
67.0542	235	C5H7+
69.0335	29	C4H5O+
69.0699	45	C5H9+
71.0491	7	C4H7O+
79.0542	141	C6H7+
81.0334	9	C5H5O+
81.0699	141	C6H9+
83.0491	133	C5H7O+
91.0542	22	C7H7+
93.0335	38	C6H5O+
93.0699	115	C7H9+
95.0492	22	C6H7O+
95.0855	16	C7H11+
97.0285	302	C5H5O2+
97.0648	32	C6H9O+
105.0701	14	C8H9+
107.0492	72	C7H7O+
107.0855	21	C8H11+
110.0363	5	C6H6O2+
111.0441	39	C6H7O2+
121.0648	12	C8H9O+
121.1012	33	C9H13+
131.0855	26	C10H11+
139.1117	5	C9H15O+
149.0962	9	C10H13O+
167.1067	999	C10H15O2+
