Mass spectrum: N-Benzyl-N-hydroxy-1-phenylmethanamine; LC-ESI-QFT; MS2; CE: 90; R=17500; [M+H]+
Name: N-Benzyl-N-hydroxy-1-phenylmethanamine
Name: N,N-dibenzylhydroxylamine
Formula: C14H15NO
Exact mass: 213.1154
SMILES: ON(CC1=CC=CC=C1)CC1=CC=CC=C1
InChI: InChI=1S/C14H15NO/c16-15(11-13-7-3-1-4-8-13)12-14-9-5-2-6-10-14/h1-10,16H,11-12H2
Instrument: Q Exactive Orbitrap (Thermo Scientific)
Instrument type: LC-ESI-QFT
Ms type: MS2
Ion mode: POSITIVE
Ionization: ESI
Fragmentation mode: HCD
Collision energy: 90
Resolution: 17500
Column name: Acquity BEH C18 1.7um, 2.1x150mm (Waters)
Retention time: 18.351 min
Base peak: 79.0211
Precursor m/z: 214.1226
Precursor type: [M+H]+
Precursor intensity: 27458345.09375
m/z	relative intensity	assigned
53.0386	5	C4H5+
65.0385	31	C5H5+
66.0463	6	C5H6+
67.0542	3	C5H7+
77.0384	2	C6H5+
78.0464	3	C6H6+
79.0542	10	C6H7+
81.0698	1	C6H9+
91.0542	17	C7H7+
92.0495	19	C6H6N+
92.062	5	C7H8+
93.0573	125	C6H7N+
94.0651	115	C6H8N+
95.0491	13	C6H7O+
106.0651	8	C7H8N+
107.0491	6	C7H7O+
109.065	1	C7H9O+
121.0524	14	C7H7NO+
121.0648	4	C8H9O+
122.06	999	C7H8NO+
128.0619	3	C10H8+
129.0698	7	C10H9+
136.0757	24	C8H10NO+
137.0835	97	C8H11NO+
153.07	1	C12H9+
154.0649	1	C11H8N+
155.0733	1	C11H9N+
156.0813	8	C11H10N+
165.0696	2	C13H9+
167.0729	9	C12H9N+
168.0812	2	C12H10N+
170.0965	4	C12H12N+
180.0808	2	C13H10N+
182.0965	9	C13H12N+
183.0678	1	C12H9NO+
183.1042	2	C13H13N+
184.0757	22	C12H10NO+
198.0912	3	C13H12NO+
