Mass spectrum: 2`,4`,5`-Trihydroxybutyrophenone; LC-ESI-QFT; MS2; CE: 75; R=17500; [M-H]-
Name: 2',4',5'-Trihydroxybutyrophenone
Name: 2,4,5-Trihydroxybutyrophenone
Name: 1-(2,4,5-trihydroxyphenyl)butan-1-one
Formula: C10H12O4
Exact mass: 196.0736
SMILES: CCCC(=O)C1=CC(O)=C(O)C=C1O
InChI: InChI=1S/C10H12O4/c1-2-3-7(11)6-4-9(13)10(14)5-8(6)12/h4-5,12-14H,2-3H2,1H3
Instrument: Q Exactive Orbitrap (Thermo Scientific)
Instrument type: LC-ESI-QFT
Ms type: MS2
Ion mode: NEGATIVE
Ionization: ESI
Fragmentation mode: HCD
Collision energy: 75
Resolution: 17500
Column name: Acquity BEH C18 1.7um, 2.1x150mm (Waters)
Retention time: 15.334 min
Base peak: 112.9857
Precursor m/z: 195.0663
Precursor type: [M-H]-
Precursor intensity: 3790213.326172
m/z	relative intensity	assigned
55.0189	32	C3H3O-
65.0033	11	C4HO-
67.0189	52	C4H3O-
69.0346	328	C4H5O-
79.0189	42	C5H3O-
81.0346	61	C5H5O-
83.0139	100	C4H3O2-
84.0217	8	C4H4O2-
85.0295	45	C4H5O2-
95.0139	709	C5H3O2-
96.0217	8	C5H4O2-
97.0296	221	C5H5O2-
97.0659	119	C6H9O-
107.0139	631	C6H3O2-
108.0218	21	C6H4O2-
109.0658	14	C7H9O-
110.0011	10	C5H2O3-
111.009	15	C5H3O3-
111.0814	32	C7H11O-
121.0658	15	C8H9O-
122.0375	12	C7H6O2-
123.0088	717	C6H3O3-
124.0166	999	C6H4O3-
125.0244	706	C6H5O3-
133.0659	10	C9H9O-
137.0244	10	C7H5O3-
138.0323	14	C7H6O3-
141.0195	10	C6H5O4-
148.0167	10	C8H4O3-
149.0615	9	C9H9O2-
151.0037	514	C7H3O4-
152.0116	240	C7H4O4-
153.0558	8	C8H9O3-
162.0324	19	C9H6O3-
165.0193	13	C8H5O4-
166.0272	351	C8H6O4-
177.0553	10	C10H9O3-
179.035	19	C9H7O4-
195.0663	74	C10H11O4-
