Mass spectrum: 2-Hydroxy-4-methoxybenzophenone; LC-ESI-QFT; MS2; CE: 30; R=17500; [M+H]+
Name: 2-Hydroxy-4-methoxybenzophenone
Name: Oxybenzone
Name: (2-hydroxy-4-methoxyphenyl)-phenylmethanone
Formula: C14H12O3
Exact mass: 228.0786
SMILES: COC1=CC=C(C(=O)C2=CC=CC=C2)C(O)=C1
InChI: InChI=1S/C14H12O3/c1-17-11-7-8-12(13(15)9-11)14(16)10-5-3-2-4-6-10/h2-9,15H,1H3
Instrument: Q Exactive Orbitrap (Thermo Scientific)
Instrument type: LC-ESI-QFT
Ms type: MS2
Ion mode: POSITIVE
Ionization: ESI
Fragmentation mode: HCD
Collision energy: 30
Resolution: 17500
Column name: Acquity BEH C18 1.7um, 2.1x150mm (Waters)
Retention time: 18.537 min
Base peak: 79.0211
Precursor m/z: 229.0859
Precursor type: [M+H]+
Precursor intensity: 939062.625
m/z	relative intensity	assigned
95.0492	3	C6H7O+
105.0336	470	C7H5O+
151.0391	999	C8H7O3+
229.0861	914	C14H13O3+
