Mass spectrum: 17beta-Trenbolone; LC-ESI-QFT; MS2; CE: 30; R=17500; [M+H]+
Name: 17beta-Trenbolone
Name: Trenbolone
Name: (8S,13S,14S,17S)-17-hydroxy-13-methyl-2,6,7,8,14,15,16,17-octahydro-1H-cyclopenta[a]phenanthren-3-one
Formula: C18H22O2
Exact mass: 270.1620
SMILES: [H][C@@]12CC[C@H](O)[C@@]1(C)C=CC1=C3CCC(=O)C=C3CC[C@@]21[H]
InChI: InChI=1S/C18H22O2/c1-18-9-8-14-13-5-3-12(19)10-11(13)2-4-15(14)16(18)6-7-17(18)20/h8-10,15-17,20H,2-7H2,1H3/t15-,16+,17+,18+/m1/s1
Instrument: Q Exactive Orbitrap (Thermo Scientific)
Instrument type: LC-ESI-QFT
Ms type: MS2
Ion mode: POSITIVE
Ionization: ESI
Fragmentation mode: HCD
Collision energy: 30
Resolution: 17500
Column name: Acquity BEH C18 1.7um, 2.1x150mm (Waters)
Retention time: 16.997 min
Base peak: 79.0211
Precursor m/z: 271.1693
Precursor type: [M+H]+
Precursor intensity: 8104729
m/z	relative intensity	assigned
81.0701	1	C6H9+
83.0491	7	C5H7O+
95.0857	1	C7H11+
105.0698	1	C8H9+
107.0492	1	C7H7O+
107.0855	2	C8H11+
109.1013	1	C8H13+
121.0646	2	C8H9O+
131.0855	1	C10H11+
133.0648	5	C9H9O+
133.1011	1	C10H13+
135.0806	1	C9H11O+
143.0855	3	C11H11+
145.065	1	C10H9O+
145.1011	3	C11H13+
147.0804	3	C10H11O+
155.0857	1	C12H11+
157.0648	3	C11H9O+
159.0805	8	C11H11O+
159.1169	1	C12H15+
161.096	2	C11H13O+
169.1013	2	C13H13+
171.0803	2	C12H11O+
171.1168	3	C13H15+
173.0962	1	C12H13O+
179.0855	2	C14H11+
183.0806	2	C13H11O+
183.1168	2	C14H15+
185.0962	4	C13H13O+
187.1116	3	C13H15O+
189.1275	8	C13H17O+
193.1012	2	C15H13+
195.1173	3	C15H15+
197.0961	12	C14H13O+
197.1326	1	C15H17+
198.1039	3	C14H14O+
199.1118	49	C14H15O+
207.117	1	C16H15+
209.1328	3	C16H17+
211.1118	9	C15H15O+
211.1482	3	C16H19+
212.1202	1	C15H16O+
213.1275	1	C15H17O+
214.1354	2	C15H18O+
215.1429	1	C15H19O+
224.1191	1	C16H16O+
225.1275	7	C16H17O+
225.1641	2	C17H21+
227.1431	12	C16H19O+
235.1481	7	C18H19+
238.1343	1	C17H18O+
243.1744	3	C17H23O+
253.1587	103	C18H21O+
271.1691	999	C18H23O2+
