Mass spectrum: 2-Amino-4-nitrophenol; LC-ESI-QFT; MS2; CE: 90; R=17500; [M-H]-
Name: 2-Amino-4-nitrophenol
Formula: C6H6N2O3
Exact mass: 154.0378
SMILES: NC1=C(O)C=CC(=C1)[N+]([O-])=O
InChI: InChI=1S/C6H6N2O3/c7-5-3-4(8(10)11)1-2-6(5)9/h1-3,9H,7H2
Instrument: Q Exactive Orbitrap (Thermo Scientific)
Instrument type: LC-ESI-QFT
Ms type: MS2
Ion mode: NEGATIVE
Ionization: ESI
Fragmentation mode: HCD
Collision energy: 90
Resolution: 17500
Column name: Acquity BEH C18 1.7um, 2.1x150mm (Waters)
Retention time: 11.162 min
Base peak: 153.0306
Precursor m/z: 153.0306
Precursor type: [M-H]-
Precursor intensity: 3528375.770752
m/z	relative intensity	assigned
80.0142	24	C4H2NO-
94.0299	45	C5H4NO-
95.0139	39	C5H3O2-
122.0248	999	C6H4NO2-
124.0166	9	C6H4O3-
153.0306	17	C6H5N2O3-
