Mass spectrum: 21-Hydroxyprogesterone; LC-ESI-QFT; MS2; CE: 15; R=17500; [M+H]+
Name: 21-Hydroxyprogesterone
Name: Desoxycortone
Name: (8S,9S,10R,13S,14S,17S)-17-(2-hydroxyacetyl)-10,13-dimethyl-1,2,6,7,8,9,11,12,14,15,16,17-dodecahydrocyclopenta[a]phenanthren-3-one
Formula: C21H30O3
Exact mass: 330.2195
SMILES: C[C@]12CC[C@H]3[C@@H](CCC4=CC(=O)CC[C@]34C)[C@@H]1CC[C@@H]2C(=O)CO
InChI: InChI=1S/C21H30O3/c1-20-9-7-14(23)11-13(20)3-4-15-16-5-6-18(19(24)12-22)21(16,2)10-8-17(15)20/h11,15-18,22H,3-10,12H2,1-2H3/t15-,16-,17-,18+,20-,21-/m0/s1
Instrument: Q Exactive Orbitrap (Thermo Scientific)
Instrument type: LC-ESI-QFT
Ms type: MS2
Ion mode: POSITIVE
Ionization: ESI
Fragmentation mode: HCD
Collision energy: 15
Resolution: 17500
Column name: Acquity BEH C18 1.7um, 2.1x150mm (Waters)
Retention time: 17.832 min
Base peak: 79.0211
Precursor m/z: 331.2268
Precursor type: [M+H]+
Precursor intensity: 6900081
m/z	relative intensity	assigned
97.0647	27	C6H9O+
109.0647	11	C7H9O+
123.0808	1	C8H11O+
137.096	1	C9H13O+
163.1114	1	C11H15O+
177.1274	2	C12H17O+
205.1586	1	C14H21O+
213.1639	1	C16H21+
217.1586	1	C15H21O+
231.1736	2	C16H23O+
253.1952	5	C19H25+
255.1744	1	C18H23O+
259.169	1	C17H23O2+
271.2055	9	C19H27O+
277.1949	1	C21H25+
285.2214	1	C20H29O+
289.2159	1	C19H29O2+
295.2056	12	C21H27O+
313.2161	46	C21H29O2+
331.2267	999	C21H31O3+
