Mass spectrum: Cyhalofop-butyl; LC-ESI-QFT; MS2; CE: 45; R=17500; [M+H]+
Name: Cyhalofop-butyl
Formula: C20H20FNO4
Exact mass: 357.1376
SMILES: CCCCOC(=O)[C@@H](C)OC1=CC=C(OC2=C(F)C=C(C=C2)C#N)C=C1
InChI: InChI=1S/C20H20FNO4/c1-3-4-11-24-20(23)14(2)25-16-6-8-17(9-7-16)26-19-10-5-15(13-22)12-18(19)21/h5-10,12,14H,3-4,11H2,1-2H3/t14-/m1/s1
Instrument: Q Exactive Orbitrap (Thermo Scientific)
Instrument type: LC-ESI-QFT
Ms type: MS2
Ion mode: POSITIVE
Ionization: ESI
Fragmentation mode: HCD
Collision energy: 45
Resolution: 17500
Column name: Acquity BEH C18 1.7um, 2.1x150mm (Waters)
Retention time: 15.694 min
Base peak: 79.0212
Precursor m/z: 358.1449
Precursor type: [M+H]+
Precursor intensity: 12302663.5
m/z	relative intensity	assigned
59.0491	263	C3H7O+
74.0964	1	C4H12N+
91.0543	2	C7H7+
97.0448	4	C6H6F+
107.0491	38	C7H7O+
119.0491	8	C8H7O+
121.0283	1	C7H5O2+
121.0649	2	C8H9O+
123.024	141	C7H4FO+
131.0855	7	C10H11+
133.0647	11	C9H9O+
135.0441	2	C8H7O2+
135.0804	32	C9H11O+
140.0506	101	C7H7FNO+
147.0804	5	C10H11O+
149.0597	68	C9H9O2+
149.0962	5	C10H13O+
159.0805	47	C11H11O+
161.0597	123	C10H9O2+
163.0389	6	C9H7O3+
163.0754	3	C10H11O2+
165.0546	20	C9H9O3+
169.0752	1	C5H12FNO4+
173.0594	2	C11H9O2+
173.096	1	C12H13O+
175.0753	3	C11H11O2+
177.091	999	C11H13O2+
181.0496	3	C9H9O4+
189.091	1	C12H13O2+
191.1063	5	C12H15O2+
201.0911	41	C13H13O2+
219.1015	80	C13H15O3+
