Mass spectrum: 17beta-Trenbolone; LC-ESI-QFT; MS2; CE: 30; R=17500; [M-H]-
Name: 17beta-Trenbolone
Name: Trenbolone
Name: (8S,13S,14S,17S)-17-hydroxy-13-methyl-2,6,7,8,14,15,16,17-octahydro-1H-cyclopenta[a]phenanthren-3-one
Formula: C18H22O2
Exact mass: 270.1620
SMILES: [H][C@@]12CC[C@H](O)[C@@]1(C)C=CC1=C3CCC(=O)C=C3CC[C@@]21[H]
InChI: InChI=1S/C18H22O2/c1-18-9-8-14-13-5-3-12(19)10-11(13)2-4-15(14)16(18)6-7-17(18)20/h8-10,15-17,20H,2-7H2,1H3/t15-,16+,17+,18+/m1/s1
Instrument: Q Exactive Orbitrap (Thermo Scientific)
Instrument type: LC-ESI-QFT
Ms type: MS2
Ion mode: NEGATIVE
Ionization: ESI
Fragmentation mode: HCD
Collision energy: 30
Resolution: 17500
Column name: Acquity BEH C18 1.7um, 2.1x150mm (Waters)
Retention time: 17.718 min
Base peak: 317.1618
Precursor m/z: 269.1547
Precursor type: [M-H]-
Precursor intensity: 1352589.799805
m/z	relative intensity	assigned
108.0218	11	C6H4O2-
119.0502	115	C8H7O-
133.0659	999	C9H9O-
135.0816	247	C9H11O-
269.1548	269	C18H21O2-
