Mass spectrum: Apigenin; LC-ESI-QFT; MS2; CE: 60; R=17500; [M+H]+
Name: Apigenin
Name: 5,7-dihydroxy-2-(4-hydroxyphenyl)chromen-4-one
Formula: C15H10O5
Exact mass: 270.0528
SMILES: OC1=CC=C(C=C1)C1=CC(=O)C2=C(O1)C=C(O)C=C2O
InChI: InChI=1S/C15H10O5/c16-9-3-1-8(2-4-9)13-7-12(19)15-11(18)5-10(17)6-14(15)20-13/h1-7,16-18H
Instrument: Q Exactive Orbitrap (Thermo Scientific)
Instrument type: LC-ESI-QFT
Ms type: MS2
Ion mode: POSITIVE
Ionization: ESI
Fragmentation mode: HCD
Collision energy: 60
Resolution: 17500
Column name: Acquity BEH C18 1.7um, 2.1x150mm (Waters)
Retention time: 16.458 min
Base peak: 79.0211
Precursor m/z: 271.0601
Precursor type: [M+H]+
Precursor intensity: 2691182.625
m/z	relative intensity	assigned
65.0386	3	C5H5+
67.0178	72	C4H3O+
68.9971	42	C3HO2+
81.0336	2	C5H5O+
91.0543	63	C7H7+
97.0284	2	C5H5O2+
109.0285	3	C6H5O2+
111.0078	7	C5H3O3+
119.0492	250	C8H7O+
121.0284	67	C7H5O2+
125.0233	3	C6H5O3+
127.039	3	C6H7O3+
129.0182	18	C5H5O4+
131.0491	5	C9H7O+
141.0699	10	C11H9+
143.034	2	C6H7O4+
145.0284	59	C9H5O2+
153.0183	455	C7H5O4+
155.049	2	C11H7O+
157.0648	4	C11H9O+
163.039	41	C9H7O3+
169.065	10	C12H9O+
171.0288	90	C7H7O5+
173.0598	4	C11H9O2+
185.0447	11	C8H9O5+
185.0599	4	C12H9O2+
187.0392	17	C11H7O3+
197.06	12	C13H9O2+
201.0544	2	C12H9O3+
202.0626	5	C12H10O3+
203.0705	8	C12H11O3+
215.0697	4	C13H11O3+
225.0548	21	C14H9O3+
229.0497	22	C13H9O4+
243.0652	34	C14H11O4+
247.0606	7	C13H11O5+
253.0494	7	C15H9O4+
270.0508	2	C15H10O5+
271.0602	999	C15H11O5+
