Mass spectrum: 2,4,4`-Trihydroxybenzophenone; LC-ESI-QFT; MS2; CE: 60; R=17500; [M-H]-
Name: 2,4,4'-Trihydroxybenzophenone
Name: (2,4-dihydroxyphenyl)-(4-hydroxyphenyl)methanone
Formula: C13H10O4
Exact mass: 230.0579
SMILES: OC1=CC=C(C=C1)C(=O)C1=CC=C(O)C=C1O
InChI: InChI=1S/C13H10O4/c14-9-3-1-8(2-4-9)13(17)11-6-5-10(15)7-12(11)16/h1-7,14-16H
Instrument: Q Exactive Orbitrap (Thermo Scientific)
Instrument type: LC-ESI-QFT
Ms type: MS2
Ion mode: NEGATIVE
Ionization: ESI
Fragmentation mode: HCD
Collision energy: 60
Resolution: 17500
Column name: Acquity BEH C18 1.7um, 2.1x150mm (Waters)
Retention time: 15.346 min
Base peak: 229.0505
Precursor m/z: 229.0506
Precursor type: [M-H]-
Precursor intensity: 36086136.44434
m/z	relative intensity	assigned
63.024	1	C5H3-
65.0033	20	C4HO-
65.0397	9	C5H5-
67.0189	5	C4H3O-
89.0397	1	C7H5-
91.019	999	C6H3O-
93.0346	896	C6H5O-
107.0138	6	C6H3O2-
108.0217	2	C6H4O2-
109.0295	35	C6H5O2-
115.0558	1	C9H7-
117.0346	45	C8H5O-
135.0088	335	C7H3O3-
137.0246	1	C7H5O3-
141.0709	2	C11H9-
143.0502	12	C10H7O-
145.0297	3	C9H5O2-
153.0194	76	C7H5O4-
156.0583	6	C11H8O-
157.0657	6	C11H9O-
158.037	1	C10H6O2-
159.0449	4	C10H7O2-
183.0452	4	C12H7O2-
184.053	10	C12H8O2-
185.0607	35	C12H9O2-
187.0399	6	C11H7O3-
229.0506	24	C13H9O4-
