Mass spectrum: Cyhalofop-butyl; LC-ESI-QFT; MS2; CE: 15; R=17500; [M+H]+
Name: Cyhalofop-butyl
Formula: C20H20FNO4
Exact mass: 357.1376
SMILES: CCCCOC(=O)[C@@H](C)OC1=CC=C(OC2=C(F)C=C(C=C2)C#N)C=C1
InChI: InChI=1S/C20H20FNO4/c1-3-4-11-24-20(23)14(2)25-16-6-8-17(9-7-16)26-19-10-5-15(13-22)12-18(19)21/h5-10,12,14H,3-4,11H2,1-2H3/t14-/m1/s1
Instrument: Q Exactive Orbitrap (Thermo Scientific)
Instrument type: LC-ESI-QFT
Ms type: MS2
Ion mode: POSITIVE
Ionization: ESI
Fragmentation mode: HCD
Collision energy: 15
Resolution: 17500
Column name: Acquity BEH C18 1.7um, 2.1x150mm (Waters)
Retention time: 15.694 min
Base peak: 79.0212
Precursor m/z: 358.1449
Precursor type: [M+H]+
Precursor intensity: 13147211.5
m/z	relative intensity	assigned
59.0492	37	C3H7O+
74.0964	1	C4H12N+
119.0492	2	C8H7O+
123.0239	12	C7H4FO+
140.0507	73	C7H7FNO+
159.0804	4	C11H11O+
161.0598	338	C10H9O2+
177.091	999	C11H13O2+
189.0907	5	C12H13O2+
191.106	1	C12H15O2+
201.0911	50	C13H13O2+
219.1016	845	C13H15O3+
286.0875	32	C16H13FNO3+
340.1347	29	C20H19FNO3+
358.1452	900	C20H21FNO4+
