Mass spectrum: 2-Ethylhexylparaben; LC-ESI-QFT; MS2; CE: 90; R=17500; [M-H]-
Name: 2-Ethylhexylparaben
Name: 2-ethylhexyl 4-hydroxybenzoate
Formula: C15H22O3
Exact mass: 250.1569
SMILES: CCCCC(CC)COC(=O)C1=CC=C(O)C=C1
InChI: InChI=1S/C15H22O3/c1-3-5-6-12(4-2)11-18-15(17)13-7-9-14(16)10-8-13/h7-10,12,16H,3-6,11H2,1-2H3
Instrument: Q Exactive Orbitrap (Thermo Scientific)
Instrument type: LC-ESI-QFT
Ms type: MS2
Ion mode: NEGATIVE
Ionization: ESI
Fragmentation mode: HCD
Collision energy: 90
Resolution: 17500
Column name: Acquity BEH C18 1.7um, 2.1x150mm (Waters)
Retention time: 19.726 min
Base peak: 249.1495
Precursor m/z: 249.1496
Precursor type: [M-H]-
Precursor intensity: 122034675.7656
m/z	relative intensity	assigned
53.0033	5	C3HO-
65.0034	7	C4HO-
65.0397	26	C5H5-
67.019	8	C4H3O-
68.9982	22	C3HO2-
69.0346	18	C4H5O-
70.006	24	C3H2O2-
71.0139	14	C3H3O2-
71.0503	2	C4H7O-
72.9933	9	C2HO3-
78.0112	4	C5H2O-
79.0189	21	C5H3O-
79.9903	11	C4O2-
80.9982	6	C4HO2-
82.006	80	C4H2O2-
83.014	2	C4H3O2-
83.0501	4	C5H7O-
86.001	3	C3H2O3-
91.019	199	C6H3O-
92.0268	608	C6H4O-
93.0346	999	C6H5O-
95.0139	863	C5H3O2-
97.0295	12	C5H5O2-
98.0012	3	C4H2O3-
106.006	49	C6H2O2-
107.0138	5	C6H3O2-
108.0217	840	C6H4O2-
109.0295	4	C6H5O2-
111.0816	2	C7H11O-
119.0136	3	C7H3O2-
120.0217	2	C7H4O2-
121.0295	86	C7H5O2-
123.0088	105	C6H3O3-
125.0971	8	C8H13O-
127.1129	64	C8H15O-
136.0167	22	C7H4O3-
137.0244	3	C7H5O3-
149.0243	7	C8H5O3-
209.0972	5	C15H13O-
