Mass spectrum: Sulfacetamide; LC-ESI-QFT; MS2; CE: 15; R=17500; [M+H]+
Name: Sulfacetamide
Name: N-(4-aminophenyl)sulfonylacetamide
Formula: C8H10N2O3S
Exact mass: 214.0412
SMILES: CC(=O)NS(=O)(=O)C1=CC=C(N)C=C1
InChI: InChI=1S/C8H10N2O3S/c1-6(11)10-14(12,13)8-4-2-7(9)3-5-8/h2-5H,9H2,1H3,(H,10,11)
Instrument: Q Exactive Orbitrap (Thermo Scientific)
Instrument type: LC-ESI-QFT
Ms type: MS2
Ion mode: POSITIVE
Ionization: ESI
Fragmentation mode: HCD
Collision energy: 15
Resolution: 17500
Column name: Acquity BEH C18 1.7um, 2.1x150mm (Waters)
Retention time: 5.866 min
Base peak: 79.0211
Precursor m/z: 215.0485
Precursor type: [M+H]+
Precursor intensity: 1257153.625
m/z	relative intensity	assigned
61.0108	88	C2H5S+
79.0213	128	C2H7OS+
108.0442	122	C6H6NO+
156.0115	999	C6H6NO2S+
