Mass spectrum: 2,4,5-Trimethoxybenzaldehyde; LC-ESI-QFT; MS2; CE: 90; R=17500; [M+H]+
Name: 2,4,5-Trimethoxybenzaldehyde
Formula: C10H12O4
Exact mass: 196.0736
SMILES: COC1=CC(OC)=C(C=O)C=C1OC
InChI: InChI=1S/C10H12O4/c1-12-8-5-10(14-3)9(13-2)4-7(8)6-11/h4-6H,1-3H3
Instrument: Q Exactive Orbitrap (Thermo Scientific)
Instrument type: LC-ESI-QFT
Ms type: MS2
Ion mode: POSITIVE
Ionization: ESI
Fragmentation mode: HCD
Collision energy: 90
Resolution: 17500
Column name: Acquity BEH C18 1.7um, 2.1x150mm (Waters)
Retention time: 14.095 min
Base peak: 79.0211
Precursor m/z: 197.0808
Precursor type: [M+H]+
Precursor intensity: 2816297.75
m/z	relative intensity	assigned
53.0022	13	C3HO+
53.0386	68	C4H5+
55.0179	27	C3H3O+
55.0542	43	C4H7+
65.0385	299	C5H5+
66.0463	58	C5H6+
67.0542	80	C5H7+
68.0256	33	C4H4O+
68.9971	60	C3HO2+
69.0334	34	C4H5O+
77.0385	12	C6H5+
78.0464	112	C6H6+
79.0179	47	C5H3O+
79.0542	54	C6H7+
81.0335	77	C5H5O+
81.07	12	C6H9+
83.0491	135	C5H7O+
85.0284	3	C4H5O2+
91.0543	5	C7H7+
92.0257	20	C6H4O+
93.0335	67	C6H5O+
94.0413	63	C6H6O+
95.0492	432	C6H7O+
96.0206	23	C5H4O2+
96.0569	56	C6H8O+
97.0284	40	C5H5O2+
97.0648	31	C6H9O+
105.0335	11	C7H5O+
106.041	4	C7H6O+
107.0127	39	C6H3O2+
107.0491	17	C7H7O+
108.057	56	C7H8O+
109.0285	109	C6H5O2+
109.0648	169	C7H9O+
110.0362	32	C6H6O2+
111.0441	809	C6H7O2+
121.0285	29	C7H5O2+
122.0364	19	C7H6O2+
123.044	999	C7H7O2+
124.0519	73	C7H8O2+
125.0597	127	C7H9O2+
126.0676	14	C7H10O2+
135.044	3	C8H7O2+
137.0233	11	C7H5O3+
137.0597	14	C8H9O2+
138.0675	223	C8H10O2+
139.039	477	C7H7O3+
149.0234	4	C8H5O3+
151.0389	7	C8H7O3+
153.0546	19	C8H9O3+
154.0624	48	C8H10O3+
155.0339	7	C7H7O4+
167.0339	108	C8H7O4+
181.0496	8	C9H9O4+
