Mass spectrum: Cyhalofop-butyl; LC-ESI-QFT; MS2; CE: 30; R=17500; [M-H]-
Name: Cyhalofop-butyl
Formula: C20H20FNO4
Exact mass: 357.1376
SMILES: CCCCOC(=O)[C@@H](C)OC1=CC=C(OC2=C(F)C=C(C=C2)C#N)C=C1
InChI: InChI=1S/C20H20FNO4/c1-3-4-11-24-20(23)14(2)25-16-6-8-17(9-7-16)26-19-10-5-15(13-22)12-18(19)21/h5-10,12,14H,3-4,11H2,1-2H3/t14-/m1/s1
Instrument: Q Exactive Orbitrap (Thermo Scientific)
Instrument type: LC-ESI-QFT
Ms type: MS2
Ion mode: NEGATIVE
Ionization: ESI
Fragmentation mode: HCD
Collision energy: 30
Resolution: 17500
Column name: Acquity BEH C18 1.7um, 2.1x150mm (Waters)
Retention time: 15.695 min
Base peak: 356.1303
Precursor m/z: 356.1304
Precursor type: [M-H]-
Precursor intensity: 49716729.39844
m/z	relative intensity	assigned
95.0303	2	C6H4F-
117.0222	2	C7H3NO-
135.0451	130	C8H7O2-
137.0408	95	C8H6FO-
138.036	211	C7H5FNO-
139.02	12	C7H4FO2-
147.0453	2	C9H7O2-
158.0609	1	C10H8NO-
159.0451	10	C10H7O2-
160.0404	499	C9H6NO2-
161.0608	1	C10H9O2-
162.036	3	C9H5FNO-
162.056	22	C9H8NO2-
174.0557	1	C10H8NO2-
175.0402	1	C10H7O3-
177.0721	110	C11H10FO-
189.092	8	C12H13O2-
199.0768	3	C13H11O2-
208.0775	2	C11H11FNO2-
216.103	2	C13H14NO2-
217.0869	44	C13H13O3-
271.0777	10	C16H12FO3-
280.0777	3	C17H11FNO2-
282.0569	1	C16H9FNO3-
283.0651	36	C16H10FNO3-
284.0728	512	C16H11FNO3-
285.0807	16	C16H12FNO3-
286.0884	25	C16H13FNO3-
296.0733	1	C17H11FNO3-
298.0883	999	C17H13FNO3-
320.109	138	C20H15FNO2-
338.1198	262	C20H17FNO3-
356.1303	99	C20H19FNO4-
