Mass spectrum: Carbofuran; LC-ESI-QFT; MS2; CE: 90; R=17500; [M+H]+
Name: Carbofuran
Name: (2,2-dimethyl-3H-1-benzofuran-7-yl) N-methylcarbamate
Formula: C12H15NO3
Exact mass: 221.1052
SMILES: CNC(=O)OC1=CC=CC2=C1OC(C)(C)C2
InChI: InChI=1S/C12H15NO3/c1-12(2)7-8-5-4-6-9(10(8)16-12)15-11(14)13-3/h4-6H,7H2,1-3H3,(H,13,14)
Instrument: Q Exactive Orbitrap (Thermo Scientific)
Instrument type: LC-ESI-QFT
Ms type: MS2
Ion mode: POSITIVE
Ionization: ESI
Fragmentation mode: HCD
Collision energy: 90
Resolution: 17500
Column name: Acquity BEH C18 1.7um, 2.1x150mm (Waters)
Retention time: 15.231 min
Base peak: 79.0211
Precursor m/z: 222.1125
Precursor type: [M+H]+
Precursor intensity: 8146542.03125
m/z	relative intensity	assigned
51.0229	10	C4H3+
53.0023	4	C3HO+
53.0386	42	C4H5+
55.0179	30	C3H3O+
55.0543	179	C4H7+
58.0287	74	C2H4NO+
65.0385	56	C5H5+
67.0542	155	C5H7+
77.0386	54	C6H5+
79.0542	12	C6H7+
81.0334	15	C5H5O+
81.07	2	C6H9+
91.0543	248	C7H7+
93.0336	5	C6H5O+
94.0414	4	C6H6O+
95.0492	246	C6H7O+
103.0542	12	C8H7+
104.0621	6	C8H8+
105.0335	78	C7H5O+
107.0491	14	C7H7O+
109.0284	6	C6H5O2+
109.0649	4	C7H9O+
110.0363	6	C6H6O2+
110.0602	2	C6H8NO+
111.044	18	C6H7O2+
117.0698	13	C9H9+
119.0492	23	C8H7O+
119.0855	14	C9H11+
123.044	999	C7H7O2+
128.0621	2	C10H8+
129.0703	2	C10H9+
131.0494	4	C9H7O+
132.0569	6	C9H8O+
137.0598	20	C8H9O2+
147.0805	4	C10H11O+
