Mass spectrum: 2,4,5-Trimethoxybenzaldehyde; LC-ESI-QFT; MS2; CE: 30; R=17500; [M+H]+
Name: 2,4,5-Trimethoxybenzaldehyde
Formula: C10H12O4
Exact mass: 196.0736
SMILES: COC1=CC(OC)=C(C=O)C=C1OC
InChI: InChI=1S/C10H12O4/c1-12-8-5-10(14-3)9(13-2)4-7(8)6-11/h4-6H,1-3H3
Instrument: Q Exactive Orbitrap (Thermo Scientific)
Instrument type: LC-ESI-QFT
Ms type: MS2
Ion mode: POSITIVE
Ionization: ESI
Fragmentation mode: HCD
Collision energy: 30
Resolution: 17500
Column name: Acquity BEH C18 1.7um, 2.1x150mm (Waters)
Retention time: 14.095 min
Base peak: 79.0211
Precursor m/z: 197.0808
Precursor type: [M+H]+
Precursor intensity: 2080928.75
m/z	relative intensity	assigned
109.0649	5	C7H9O+
111.0446	1	C6H7O2+
123.0444	2	C7H7O2+
124.0517	1	C7H8O2+
125.0601	1	C7H9O2+
126.0675	2	C7H10O2+
137.0595	2	C8H9O2+
138.0676	310	C8H10O2+
139.0392	4	C7H7O3+
139.0754	43	C8H11O2+
154.0625	404	C8H10O3+
155.0704	2	C8H11O3+
167.0339	7	C8H7O4+
167.0704	106	C9H11O3+
168.0783	2	C9H12O3+
169.086	999	C9H13O3+
182.0576	67	C9H10O4+
197.081	943	C10H13O4+
