Mass spectrum: 2`,4`,5`-Trihydroxybutyrophenone; LC-ESI-QFT; MS2; CE: 90; R=17500; [M-H]-
Name: 2',4',5'-Trihydroxybutyrophenone
Name: 2,4,5-Trihydroxybutyrophenone
Name: 1-(2,4,5-trihydroxyphenyl)butan-1-one
Formula: C10H12O4
Exact mass: 196.0736
SMILES: CCCC(=O)C1=CC(O)=C(O)C=C1O
InChI: InChI=1S/C10H12O4/c1-2-3-7(11)6-4-9(13)10(14)5-8(6)12/h4-5,12-14H,2-3H2,1H3
Instrument: Q Exactive Orbitrap (Thermo Scientific)
Instrument type: LC-ESI-QFT
Ms type: MS2
Ion mode: NEGATIVE
Ionization: ESI
Fragmentation mode: HCD
Collision energy: 90
Resolution: 17500
Column name: Acquity BEH C18 1.7um, 2.1x150mm (Waters)
Retention time: 15.334 min
Base peak: 112.9857
Precursor m/z: 195.0663
Precursor type: [M-H]-
Precursor intensity: 5132967.364258
m/z	relative intensity	assigned
55.0189	58	C3H3O-
65.0033	8	C4HO-
67.019	117	C4H3O-
69.0346	330	C4H5O-
79.0189	56	C5H3O-
80.0268	8	C5H4O-
81.0346	37	C5H5O-
83.0138	75	C4H3O2-
84.0217	8	C4H4O2-
85.0295	46	C4H5O2-
95.0139	851	C5H3O2-
97.0296	138	C5H5O2-
97.0659	53	C6H9O-
107.0139	569	C6H3O2-
108.0217	19	C6H4O2-
111.0088	13	C5H3O3-
111.0816	13	C7H11O-
113.0242	6	C5H5O3-
121.0295	10	C7H5O2-
123.0088	999	C6H3O3-
124.0166	654	C6H4O3-
125.0244	211	C6H5O3-
134.0373	6	C8H6O2-
137.0243	24	C7H5O3-
141.0195	10	C6H5O4-
148.0169	7	C8H4O3-
151.0037	272	C7H3O4-
152.0116	73	C7H4O4-
165.0191	11	C8H5O4-
166.0272	104	C8H6O4-
179.0353	12	C9H7O4-
