Mass spectrum: Cyhalofop-butyl; LC-ESI-QFT; MS2; CE: 30; R=17500; [M+H]+
Name: Cyhalofop-butyl
Formula: C20H20FNO4
Exact mass: 357.1376
SMILES: CCCCOC(=O)[C@@H](C)OC1=CC=C(OC2=C(F)C=C(C=C2)C#N)C=C1
InChI: InChI=1S/C20H20FNO4/c1-3-4-11-24-20(23)14(2)25-16-6-8-17(9-7-16)26-19-10-5-15(13-22)12-18(19)21/h5-10,12,14H,3-4,11H2,1-2H3/t14-/m1/s1
Instrument: Q Exactive Orbitrap (Thermo Scientific)
Instrument type: LC-ESI-QFT
Ms type: MS2
Ion mode: POSITIVE
Ionization: ESI
Fragmentation mode: HCD
Collision energy: 30
Resolution: 17500
Column name: Acquity BEH C18 1.7um, 2.1x150mm (Waters)
Retention time: 15.694 min
Base peak: 79.0212
Precursor m/z: 358.1449
Precursor type: [M+H]+
Precursor intensity: 12467255.3125
m/z	relative intensity	assigned
59.0491	103	C3H7O+
97.0449	1	C6H6F+
107.0492	2	C7H7O+
119.0492	5	C8H7O+
123.024	46	C7H4FO+
133.0646	4	C9H9O+
135.0805	5	C9H11O+
140.0506	75	C7H7FNO+
147.0804	1	C10H11O+
149.0596	12	C9H9O2+
149.0962	1	C10H13O+
159.0804	17	C11H11O+
161.0597	241	C10H9O2+
175.0754	1	C11H11O2+
177.0909	999	C11H13O2+
189.0906	4	C12H13O2+
191.1063	3	C12H15O2+
201.091	40	C13H13O2+
219.1015	269	C13H15O3+
286.0869	2	C16H13FNO3+
358.1449	2	C20H21FNO4+
