Mass spectrum: 2-Ethylhexylparaben; LC-ESI-QFT; MS2; CE: 60; R=17500; [M-H]-
Name: 2-Ethylhexylparaben
Name: 2-ethylhexyl 4-hydroxybenzoate
Formula: C15H22O3
Exact mass: 250.1569
SMILES: CCCCC(CC)COC(=O)C1=CC=C(O)C=C1
InChI: InChI=1S/C15H22O3/c1-3-5-6-12(4-2)11-18-15(17)13-7-9-14(16)10-8-13/h7-10,12,16H,3-6,11H2,1-2H3
Instrument: Q Exactive Orbitrap (Thermo Scientific)
Instrument type: LC-ESI-QFT
Ms type: MS2
Ion mode: NEGATIVE
Ionization: ESI
Fragmentation mode: HCD
Collision energy: 60
Resolution: 17500
Column name: Acquity BEH C18 1.7um, 2.1x150mm (Waters)
Retention time: 19.726 min
Base peak: 249.1495
Precursor m/z: 249.1496
Precursor type: [M-H]-
Precursor intensity: 138486823.4336
m/z	relative intensity	assigned
53.0031	2	C3HO-
65.0395	2	C5H5-
67.019	5	C4H3O-
68.9982	19	C3HO2-
69.0346	17	C4H5O-
70.006	20	C3H2O2-
71.0138	14	C3H3O2-
72.9932	7	C2HO3-
78.0111	4	C5H2O-
79.0188	15	C5H3O-
79.9901	9	C4O2-
80.9982	5	C4HO2-
82.006	71	C4H2O2-
83.0138	2	C4H3O2-
86.0009	3	C3H2O3-
91.0189	158	C6H3O-
92.0268	472	C6H4O-
93.0346	999	C6H5O-
95.0138	805	C5H3O2-
97.0295	11	C5H5O2-
98.0012	3	C4H2O3-
106.006	48	C6H2O2-
106.0423	4	C7H6O-
107.0139	8	C6H3O2-
108.0217	755	C6H4O2-
109.0293	3	C6H5O2-
119.0138	43	C7H3O2-
120.0217	1	C7H4O2-
121.0295	105	C7H5O2-
123.0088	106	C6H3O3-
125.0974	3	C8H13O-
127.1128	178	C8H15O-
136.0166	610	C7H4O3-
137.0244	202	C7H5O3-
149.0245	5	C8H5O3-
249.1495	89	C15H21O3-
