Mass spectrum: 2,4,5-Trimethoxybenzaldehyde; LC-ESI-QFT; MS2; CE: 45; R=17500; [M+H]+
Name: 2,4,5-Trimethoxybenzaldehyde
Formula: C10H12O4
Exact mass: 196.0736
SMILES: COC1=CC(OC)=C(C=O)C=C1OC
InChI: InChI=1S/C10H12O4/c1-12-8-5-10(14-3)9(13-2)4-7(8)6-11/h4-6H,1-3H3
Instrument: Q Exactive Orbitrap (Thermo Scientific)
Instrument type: LC-ESI-QFT
Ms type: MS2
Ion mode: POSITIVE
Ionization: ESI
Fragmentation mode: HCD
Collision energy: 45
Resolution: 17500
Column name: Acquity BEH C18 1.7um, 2.1x150mm (Waters)
Retention time: 14.095 min
Base peak: 79.0211
Precursor m/z: 197.0808
Precursor type: [M+H]+
Precursor intensity: 2105052.5
m/z	relative intensity	assigned
66.0464	1	C5H6+
67.0542	1	C5H7+
78.0461	1	C6H6+
79.0542	11	C6H7+
81.0698	7	C6H9+
94.0413	3	C6H6O+
95.0492	13	C6H7O+
96.0568	11	C6H8O+
97.0647	1	C6H9O+
105.0333	1	C7H5O+
107.049	1	C7H7O+
108.0569	5	C7H8O+
109.0648	27	C7H9O+
111.044	13	C6H7O2+
111.0805	5	C7H11O+
121.0285	2	C7H5O2+
122.0363	16	C7H6O2+
123.0441	57	C7H7O2+
124.0519	22	C7H8O2+
125.0597	13	C7H9O2+
126.0676	23	C7H10O2+
137.0596	3	C8H9O2+
138.0675	999	C8H10O2+
139.039	101	C7H7O3+
139.0753	128	C8H11O2+
153.0546	11	C8H9O3+
154.0624	706	C8H10O3+
155.0701	7	C8H11O3+
167.034	89	C8H7O4+
167.0703	126	C9H11O3+
168.0783	9	C9H12O3+
169.0859	658	C9H13O3+
182.0574	135	C9H10O4+
195.0653	5	C10H11O4+
197.0809	115	C10H13O4+
