Mass spectrum: Apigenin; LC-ESI-QFT; MS2; CE: 75; R=17500; [M-H]-
Name: Apigenin
Name: 5,7-dihydroxy-2-(4-hydroxyphenyl)chromen-4-one
Formula: C15H10O5
Exact mass: 270.0528
SMILES: OC1=CC=C(C=C1)C1=CC(=O)C2=C(O1)C=C(O)C=C2O
InChI: InChI=1S/C15H10O5/c16-9-3-1-8(2-4-9)13-7-12(19)15-11(18)5-10(17)6-14(15)20-13/h1-7,16-18H
Instrument: Q Exactive Orbitrap (Thermo Scientific)
Instrument type: LC-ESI-QFT
Ms type: MS2
Ion mode: NEGATIVE
Ionization: ESI
Fragmentation mode: HCD
Collision energy: 75
Resolution: 17500
Column name: Acquity BEH C18 1.7um, 2.1x150mm (Waters)
Retention time: 19.838 min
Base peak: 269.0455
Precursor m/z: 269.0455
Precursor type: [M-H]-
Precursor intensity: 73995390.36816
m/z	relative intensity	assigned
63.0241	6	C5H3-
65.0033	18	C4HO-
65.0397	5	C5H5-
77.0397	7	C6H5-
89.0397	20	C7H5-
91.0189	25	C6H3O-
103.0554	3	C8H7-
105.0346	198	C7H5O-
113.0396	9	C9H5-
115.0553	31	C9H7-
117.0345	7	C8H5O-
127.0554	9	C10H7-
129.0711	4	C10H9-
130.0421	4	C9H6O-
131.0502	11	C9H7O-
132.0215	3	C8H4O2-
133.0295	21	C8H5O2-
133.066	7	C9H9O-
135.0088	6	C7H3O3-
139.0554	44	C11H7-
141.0711	21	C11H9-
143.0502	28	C10H7O-
145.0658	3	C10H9O-
151.0552	6	C12H7-
152.0632	53	C12H8-
153.071	126	C12H9-
154.0425	85	C11H6O-
155.0502	25	C11H7O-
156.0579	2	C11H8O-
157.0658	107	C11H9O-
158.0372	8	C10H6O2-
159.045	15	C10H7O2-
161.0608	17	C10H9O2-
166.0424	3	C12H6O-
167.0502	35	C12H7O-
168.0581	42	C12H8O-
169.0659	95	C12H9O-
170.0371	6	C11H6O2-
171.0452	301	C11H7O2-
172.0533	10	C11H8O2-
173.0608	31	C11H9O2-
175.0401	24	C10H7O3-
178.0423	8	C13H6O-
179.0503	140	C13H7O-
180.0581	297	C13H8O-
181.0659	331	C13H9O-
182.0374	704	C12H6O2-
183.0452	34	C12H7O2-
184.0532	15	C12H8O2-
185.0608	450	C12H9O2-
186.0325	13	C11H6O3-
187.04	16	C11H7O3-
195.0451	252	C13H7O2-
196.053	273	C13H8O2-
197.0608	541	C13H9O2-
198.0324	21	C12H6O3-
199.04	75	C12H7O3-
201.0191	3	C11H5O4-
201.0558	18	C12H9O3-
207.0451	77	C14H7O2-
210.0322	308	C13H6O3-
211.0402	13	C13H7O3-
212.0481	47	C13H8O3-
213.0558	255	C13H9O3-
214.0272	7	C12H6O4-
223.0402	35	C14H7O3-
224.048	393	C14H8O3-
225.0558	999	C14H9O3-
226.0269	17	C13H6O4-
227.0351	160	C13H7O4-
228.043	9	C13H8O4-
239.035	5	C14H7O4-
240.0429	409	C14H8O4-
241.0507	448	C14H9O4-
256.0378	46	C14H8O5-
268.0377	12	C15H8O5-
269.0456	164	C15H9O5-
