Mass spectrum: Cyhalofop-butyl; LC-ESI-QFT; MS2; CE: 75; R=17500; [M+H]+
Name: Cyhalofop-butyl
Formula: C20H20FNO4
Exact mass: 357.1376
SMILES: CCCCOC(=O)[C@@H](C)OC1=CC=C(OC2=C(F)C=C(C=C2)C#N)C=C1
InChI: InChI=1S/C20H20FNO4/c1-3-4-11-24-20(23)14(2)25-16-6-8-17(9-7-16)26-19-10-5-15(13-22)12-18(19)21/h5-10,12,14H,3-4,11H2,1-2H3/t14-/m1/s1
Instrument: Q Exactive Orbitrap (Thermo Scientific)
Instrument type: LC-ESI-QFT
Ms type: MS2
Ion mode: POSITIVE
Ionization: ESI
Fragmentation mode: HCD
Collision energy: 75
Resolution: 17500
Column name: Acquity BEH C18 1.7um, 2.1x150mm (Waters)
Retention time: 15.694 min
Base peak: 79.0212
Precursor m/z: 358.1449
Precursor type: [M+H]+
Precursor intensity: 11980758
m/z	relative intensity	assigned
51.023	10	C4H3+
53.0022	5	C3HO+
53.0386	5	C4H5+
55.0543	10	C4H7+
59.0491	999	C3H7O+
71.029	14	C4H4F+
74.0963	2	C4H12N+
75.0229	13	C6H3+
79.0543	24	C6H7+
91.0542	83	C7H7+
93.07	34	C7H9+
95.0289	6	C6H4F+
95.0491	35	C6H7O+
97.0448	34	C6H6F+
99.0242	3	C5H4FO+
105.0447	8	FH8NO4+
105.0699	17	C8H9+
107.0491	222	C7H7O+
111.044	4	C6H7O2+
113.0397	61	C6H6FO+
115.0541	10	C9H7+
116.0623	6	C9H8+
119.0492	9	C8H7O+
121.0284	10	C7H5O2+
121.0648	83	C8H9O+
122.0401	4	C7H5FN+
123.0241	613	C7H4FO+
129.0697	7	C10H9+
131.0492	9	C9H7O+
131.0855	23	C10H11+
133.0648	11	C9H9O+
134.0365	4	C8H6O2+
135.0438	4	C8H7O2+
135.0805	19	C9H11O+
140.0507	45	C7H7FNO+
141.07	10	C11H9+
144.057	26	C10H8O+
147.0803	4	C10H11O+
149.0598	185	C9H9O2+
158.0364	6	C10H6O2+
158.0726	9	C11H10O+
159.0804	57	C11H11O+
161.0597	3	C10H9O2+
163.039	15	C9H7O3+
165.0547	47	C9H9O3+
169.0758	6	C5H12FNO4+
173.06	20	C11H9O2+
177.091	59	C11H13O2+
181.0493	4	C9H9O4+
190.0624	23	C11H10O3+
201.091	36	C13H13O2+
