Mass spectrum: Chlorpromazine; LC-ESI-QFT; MS2; CE: 90; R=17500; [M+H]+
Name: Chlorpromazine
Name: 3-(2-chlorophenothiazin-10-yl)-N,N-dimethylpropan-1-amine
Formula: C17H19ClN2S
Exact mass: 318.0957
SMILES: CN(C)CCCN1C2=C(SC3=C1C=C(Cl)C=C3)C=CC=C2
InChI: InChI=1S/C17H19ClN2S/c1-19(2)10-5-11-20-14-6-3-4-7-16(14)21-17-9-8-13(18)12-15(17)20/h3-4,6-9,12H,5,10-11H2,1-2H3
Instrument: Q Exactive Orbitrap (Thermo Scientific)
Instrument type: LC-ESI-QFT
Ms type: MS2
Ion mode: POSITIVE
Ionization: ESI
Fragmentation mode: HCD
Collision energy: 90
Resolution: 17500
Column name: Acquity BEH C18 1.7um, 2.1x150mm (Waters)
Retention time: 16.139 min
Base peak: 79.0211
Precursor m/z: 319.103
Precursor type: [M+H]+
Precursor intensity: 27373624.25
m/z	relative intensity	assigned
56.0495	16	C3H6N+
57.0573	1	C3H7N+
58.0651	999	C3H8N+
70.0651	1	C4H8N+
71.0729	13	C4H9N+
84.0807	1	C5H10N+
86.0964	116	C5H12N+
115.0541	1	C9H7+
117.0696	1	C9H9+
130.0652	1	C9H8N+
152.062	3	C12H8+
154.065	4	C11H8N+
166.0651	3	C12H8N+
167.0729	13	C12H9N+
171.026	3	C11H7S+
177.0572	4	C13H7N+
178.065	10	C13H8N+
179.0728	9	C13H9N+
184.0342	2	C12H8S+
191.0726	1	C14H9N+
196.0757	3	C10H13ClN2+
198.0372	12	C12H8NS+
201.0339	5	C12H8ClN+
204.0807	6	C15H10N+
205.0885	4	C15H11N+
206.0963	5	C15H12N+
209.0293	1	C13H7NS+
210.0371	12	C13H8NS+
211.0449	23	C13H9NS+
213.0338	14	C13H8ClN+
214.0416	87	C13H9ClN+
223.045	3	C14H9NS+
224.0527	4	C14H10NS+
233.0058	1	C12H8ClNS+
238.0683	4	C15H12NS+
239.0761	1	C15H13NS+
240.0573	1	C15H11ClN+
246.0136	2	C13H9ClNS+
