Mass spectrum: 2,4,5-Trimethoxybenzaldehyde; LC-ESI-QFT; MS2; CE: 60; R=17500; [M-H]-
Name: 2,4,5-Trimethoxybenzaldehyde
Formula: C10H12O4
Exact mass: 196.0736
SMILES: COC1=CC(OC)=C(C=O)C=C1OC
InChI: InChI=1S/C10H12O4/c1-12-8-5-10(14-3)9(13-2)4-7(8)6-11/h4-6H,1-3H3
Instrument: Q Exactive Orbitrap (Thermo Scientific)
Instrument type: LC-ESI-QFT
Ms type: MS2
Ion mode: NEGATIVE
Ionization: ESI
Fragmentation mode: HCD
Collision energy: 60
Resolution: 17500
Column name: Acquity BEH C18 1.7um, 2.1x150mm (Waters)
Retention time: 17.024 min
Base peak: 221.1182
Precursor m/z: 195.0663
Precursor type: [M-H]-
Precursor intensity: 1524066.422852
m/z	relative intensity	assigned
119.0502	999	C8H7O-
163.0404	81	C9H7O3-
