Mass spectrum: Carbofuran; LC-ESI-QFT; MS2; CE: 45; R=17500; [M+H]+
Name: Carbofuran
Name: (2,2-dimethyl-3H-1-benzofuran-7-yl) N-methylcarbamate
Formula: C12H15NO3
Exact mass: 221.1052
SMILES: CNC(=O)OC1=CC=CC2=C1OC(C)(C)C2
InChI: InChI=1S/C12H15NO3/c1-12(2)7-8-5-4-6-9(10(8)16-12)15-11(14)13-3/h4-6H,7H2,1-3H3,(H,13,14)
Instrument: Q Exactive Orbitrap (Thermo Scientific)
Instrument type: LC-ESI-QFT
Ms type: MS2
Ion mode: POSITIVE
Ionization: ESI
Fragmentation mode: HCD
Collision energy: 45
Resolution: 17500
Column name: Acquity BEH C18 1.7um, 2.1x150mm (Waters)
Retention time: 15.231 min
Base peak: 79.0211
Precursor m/z: 222.1125
Precursor type: [M+H]+
Precursor intensity: 10012335.375
m/z	relative intensity	assigned
51.0229	1	C4H3+
53.0385	2	C4H5+
55.0542	86	C4H7+
58.0287	20	C2H4NO+
77.0386	1	C6H5+
91.0542	23	C7H7+
95.0491	4	C6H7O+
107.0492	1	C7H7O+
109.0283	4	C6H5O2+
111.044	10	C6H7O2+
119.0493	1	C8H7O+
119.0855	36	C9H11+
123.044	999	C7H7O2+
137.0597	70	C8H9O2+
137.0961	3	C9H13O+
138.0914	2	C8H12NO+
147.0804	27	C10H11O+
149.0595	3	C9H9O2+
165.091	376	C10H13O2+
191.0699	1	C11H11O3+
