Mass spectrum: 17beta-Trenbolone; LC-ESI-QFT; MS2; CE: 75; R=17500; [M+H]+
Name: 17beta-Trenbolone
Name: Trenbolone
Name: (8S,13S,14S,17S)-17-hydroxy-13-methyl-2,6,7,8,14,15,16,17-octahydro-1H-cyclopenta[a]phenanthren-3-one
Formula: C18H22O2
Exact mass: 270.1620
SMILES: [H][C@@]12CC[C@H](O)[C@@]1(C)C=CC1=C3CCC(=O)C=C3CC[C@@]21[H]
InChI: InChI=1S/C18H22O2/c1-18-9-8-14-13-5-3-12(19)10-11(13)2-4-15(14)16(18)6-7-17(18)20/h8-10,15-17,20H,2-7H2,1H3/t15-,16+,17+,18+/m1/s1
Instrument: Q Exactive Orbitrap (Thermo Scientific)
Instrument type: LC-ESI-QFT
Ms type: MS2
Ion mode: POSITIVE
Ionization: ESI
Fragmentation mode: HCD
Collision energy: 75
Resolution: 17500
Column name: Acquity BEH C18 1.7um, 2.1x150mm (Waters)
Retention time: 16.990 min
Base peak: 79.0211
Precursor m/z: 271.1693
Precursor type: [M+H]+
Precursor intensity: 7732252.375
m/z	relative intensity	assigned
53.0022	12	C3HO+
53.0386	36	C4H5+
55.0179	73	C3H3O+
55.0543	150	C4H7+
57.0335	29	C3H5O+
57.0701	7	C4H9+
65.0386	21	C5H5+
67.0542	119	C5H7+
69.0335	7	C4H5O+
69.0698	23	C5H9+
71.0491	33	C4H7O+
77.0387	11	C6H5+
79.0542	237	C6H7+
81.0335	8	C5H5O+
81.0699	114	C6H9+
83.0491	412	C5H7O+
85.0649	8	C5H9O+
91.0543	383	C7H7+
92.062	4	C7H8+
93.0699	122	C7H9+
94.0415	4	C6H6O+
95.0128	999	C5H3O2+
95.0492	111	C6H7O+
97.0649	15	C6H9O+
103.0542	65	C8H7+
104.0622	11	C8H8+
105.0699	390	C8H9+
107.0492	563	C7H7O+
107.0855	64	C8H11+
108.0573	6	C7H8O+
109.0649	71	C7H9O+
109.1013	6	C8H13+
115.0543	105	C9H7+
116.0621	37	C9H8+
117.0699	202	C9H9+
118.0776	10	C9H10+
119.0494	9	C8H7O+
119.0856	89	C9H11+
121.0648	63	C8H9O+
123.0804	12	C8H11O+
128.062	184	C10H8+
129.0699	299	C10H9+
130.0779	62	C10H10+
131.0492	72	C9H7O+
131.0856	205	C10H11+
132.0572	23	C9H8O+
133.0648	281	C9H9O+
133.1013	31	C10H13+
135.0805	99	C9H11O+
141.0699	361	C11H9+
142.0777	119	C11H10+
143.0856	235	C11H11+
144.057	102	C10H8O+
144.0934	17	C11H12+
145.0648	140	C10H9O+
145.1012	144	C11H13+
146.0727	38	C10H10O+
146.1089	11	C11H14+
147.0805	74	C10H11O+
147.117	6	C11H15+
148.0883	43	C10H12O+
149.0962	7	C10H13O+
152.0622	59	C12H8+
153.0699	143	C12H9+
154.0777	106	C12H10+
155.0856	315	C12H11+
156.0935	69	C12H12+
157.0649	358	C11H9O+
157.1012	87	C12H13+
158.0727	60	C11H10O+
159.0805	215	C11H11O+
160.0883	8	C11H12O+
161.0962	43	C11H13O+
162.1044	6	C11H14O+
165.0699	283	C13H9+
166.0778	206	C13H10+
167.0856	305	C13H11+
168.0934	96	C13H12+
169.0649	38	C12H9O+
169.1012	195	C13H13+
170.0726	34	C12H10O+
170.1091	19	C13H14+
171.0804	136	C12H11O+
171.1169	53	C13H15+
172.0882	20	C12H12O+
173.0961	37	C12H13O+
174.1042	4	C12H14O+
177.0701	5	C14H9+
178.0777	186	C14H10+
179.0855	252	C14H11+
180.0934	80	C14H12+
181.0648	35	C13H9O+
181.1012	219	C14H13+
182.0728	42	C13H10O+
182.1093	43	C14H14+
183.0805	154	C13H11O+
183.1169	126	C14H15+
184.0884	103	C13H12O+
185.0961	227	C13H13O+
185.1328	14	C14H17+
186.1039	107	C13H14O+
187.1116	26	C13H15O+
188.1192	4	C13H16O+
191.0854	59	C15H11+
192.0934	79	C15H12+
193.1012	95	C15H13+
194.0728	6	C14H10O+
194.1092	41	C15H14+
195.0806	47	C14H11O+
195.1169	103	C15H15+
196.0882	29	C14H12O+
196.1247	18	C15H16+
197.0961	194	C14H13O+
197.1327	19	C15H17+
198.104	153	C14H14O+
199.1118	646	C14H15O+
200.1196	156	C14H16O+
201.1278	5	C14H17O+
203.0859	9	C16H11+
204.0932	9	C16H12+
205.1013	87	C16H13+
206.1091	26	C16H14+
207.1169	72	C16H15+
208.0879	8	C15H12O+
209.096	42	C15H13O+
209.1326	39	C16H17+
210.1038	37	C15H14O+
210.1406	6	C16H18+
211.1118	66	C15H15O+
211.1486	19	C16H19+
212.1196	60	C15H16O+
213.1275	60	C15H17O+
214.1352	100	C15H18O+
215.1433	13	C15H19O+
218.1091	11	C17H14+
219.117	30	C17H15+
220.1247	30	C17H16+
221.1328	11	C17H17+
223.1119	54	C16H15O+
223.1476	5	C17H19+
224.1196	27	C16H16O+
225.1272	43	C16H17O+
227.1431	82	C16H19O+
228.151	10	C16H20O+
233.1326	5	C18H17+
235.1481	37	C18H19+
237.1273	58	C17H17O+
238.1352	67	C17H18O+
239.1423	6	C17H19O+
251.1436	4	C18H19O+
253.1586	56	C18H21O+
271.1701	18	C18H23O2+
