Mass spectrum: 21-Hydroxyprogesterone; LC-ESI-QFT; MS2; CE: 75; R=17500; [M+H]+
Name: 21-Hydroxyprogesterone
Name: Desoxycortone
Name: (8S,9S,10R,13S,14S,17S)-17-(2-hydroxyacetyl)-10,13-dimethyl-1,2,6,7,8,9,11,12,14,15,16,17-dodecahydrocyclopenta[a]phenanthren-3-one
Formula: C21H30O3
Exact mass: 330.2195
SMILES: C[C@]12CC[C@H]3[C@@H](CCC4=CC(=O)CC[C@]34C)[C@@H]1CC[C@@H]2C(=O)CO
InChI: InChI=1S/C21H30O3/c1-20-9-7-14(23)11-13(20)3-4-15-16-5-6-18(19(24)12-22)21(16,2)10-8-17(15)20/h11,15-18,22H,3-10,12H2,1-2H3/t15-,16-,17-,18+,20-,21-/m0/s1
Instrument: Q Exactive Orbitrap (Thermo Scientific)
Instrument type: LC-ESI-QFT
Ms type: MS2
Ion mode: POSITIVE
Ionization: ESI
Fragmentation mode: HCD
Collision energy: 75
Resolution: 17500
Column name: Acquity BEH C18 1.7um, 2.1x150mm (Waters)
Retention time: 17.832 min
Base peak: 79.0211
Precursor m/z: 331.2268
Precursor type: [M+H]+
Precursor intensity: 5055204.125
m/z	relative intensity	assigned
53.0023	9	C3HO+
53.0386	29	C4H5+
55.0178	44	C3H3O+
55.0543	42	C4H7+
57.0335	5	C3H5O+
59.0492	6	C3H7O+
61.0285	2	C2H5O2+
65.0385	18	C5H5+
66.0463	2	C5H6+
67.0542	106	C5H7+
69.0335	11	C4H5O+
69.0698	65	C5H9+
71.0491	3	C4H7O+
77.0385	4	C6H5+
79.0542	339	C6H7+
81.0699	304	C6H9+
83.0491	79	C5H7O+
85.0648	3	C5H9O+
87.0441	4	C4H7O2+
91.0542	142	C7H7+
93.0699	114	C7H9+
94.0413	10	C6H6O+
95.0492	59	C6H7O+
95.0855	88	C7H11+
97.0648	999	C6H9O+
103.0541	6	C8H7+
105.0699	156	C8H9+
107.0491	17	C7H7O+
107.0856	53	C8H11+
108.057	5	C7H8O+
109.0648	934	C7H9O+
111.0806	11	C7H11O+
115.0541	8	C9H7+
116.0621	4	C9H8+
117.0699	47	C9H9+
119.0856	90	C9H11+
121.0649	34	C8H9O+
121.1011	20	C9H13+
123.0804	133	C8H11O+
128.062	21	C10H8+
129.0699	35	C10H9+
130.0779	13	C10H10+
131.0856	63	C10H11+
133.0646	5	C9H9O+
133.1011	44	C10H13+
135.0803	10	C9H11O+
135.1166	5	C10H15+
137.0962	9	C9H13O+
141.07	18	C11H9+
142.0777	29	C11H10+
143.0856	50	C11H11+
144.0933	10	C11H12+
145.0648	5	C10H9O+
145.1012	69	C11H13+
147.0806	12	C10H11O+
147.1168	33	C11H15+
148.088	5	C10H12O+
149.0964	12	C10H13O+
153.0696	5	C12H9+
154.0778	7	C12H10+
155.0855	29	C12H11+
156.0931	19	C12H12+
157.1012	35	C12H13+
158.1088	3	C12H14+
159.1169	29	C12H15+
161.0959	7	C11H13O+
161.1325	10	C12H17+
163.1117	16	C11H15O+
165.0697	7	C13H9+
167.0854	16	C13H11+
168.0932	9	C13H12+
169.1012	31	C13H13+
170.1088	5	C13H14+
171.1169	23	C13H15+
173.0963	3	C12H13O+
173.1326	9	C13H17+
175.1118	4	C12H15O+
175.1481	4	C13H19+
177.1275	3	C12H17O+
179.0853	6	C14H11+
181.1013	12	C14H13+
182.109	5	C14H14+
183.1169	15	C14H15+
184.1247	3	C14H16+
185.1324	10	C14H17+
187.112	3	C13H15O+
187.148	2	C14H19+
189.1266	2	C13H17O+
193.1012	3	C15H13+
195.1168	8	C15H15+
196.1246	2	C15H16+
197.1324	12	C15H17+
199.1484	5	C15H19+
207.1156	2	C16H15+
209.1322	4	C16H17+
211.148	6	C16H19+
213.1635	4	C16H21+
221.1321	2	C17H17+
237.1635	6	C18H21+
