Mass spectrum: 4-Amino-2-nitrophenol; LC-ESI-QFT; MS2; CE: 45; R=17500; [M-H]-
Name: 4-Amino-2-nitrophenol
Formula: C6H6N2O3
Exact mass: 154.0378
SMILES: NC1=CC(=C(O)C=C1)[N+]([O-])=O
InChI: InChI=1S/C6H6N2O3/c7-4-1-2-6(9)5(3-4)8(10)11/h1-3,9H,7H2
Instrument: Q Exactive Orbitrap (Thermo Scientific)
Instrument type: LC-ESI-QFT
Ms type: MS2
Ion mode: NEGATIVE
Ionization: ESI
Fragmentation mode: HCD
Collision energy: 45
Resolution: 17500
Column name: Acquity BEH C18 1.7um, 2.1x150mm (Waters)
Retention time: 11.162 min
Base peak: 153.0306
Precursor m/z: 153.0306
Precursor type: [M-H]-
Precursor intensity: 4605610.841797
m/z	relative intensity	assigned
65.9985	3	C3NO-
68.0141	4	C3H2NO-
95.0135	2	C5H3O2-
106.0299	19	C6H4NO-
122.0248	654	C6H4NO2-
123.0086	3	C6H3O3-
123.0326	39	C6H5NO2-
124.0165	6	C6H4O3-
153.0306	999	C6H5N2O3-
