Mass spectrum: N-(3-Amino-4-methoxyphenyl)acetamide; LC-ESI-QFT; MS2; CE: 90; R=17500; [M+H]+
Name: N-(3-Amino-4-methoxyphenyl)acetamide
Formula: C9H12N2O2
Exact mass: 180.0899
SMILES: COC1=C(N)C=C(NC(C)=O)C=C1
InChI: InChI=1S/C9H12N2O2/c1-6(12)11-7-3-4-9(13-2)8(10)5-7/h3-5H,10H2,1-2H3,(H,11,12)
Instrument: Q Exactive Orbitrap (Thermo Scientific)
Instrument type: LC-ESI-QFT
Ms type: MS2
Ion mode: POSITIVE
Ionization: ESI
Fragmentation mode: HCD
Collision energy: 90
Resolution: 17500
Column name: Acquity BEH C18 1.7um, 2.1x150mm (Waters)
Retention time: 4.403 min
Base peak: 79.0211
Precursor m/z: 181.0972
Precursor type: [M+H]+
Precursor intensity: 8987381.6875
m/z	relative intensity	assigned
53.0386	19	C4H5+
54.0339	5	C3H4N+
63.0229	5	C5H3+
65.0386	27	C5H5+
67.0542	10	C5H7+
68.0131	1	C3H2NO+
68.0495	2	C4H6N+
77.0385	3	C6H5+
79.0415	9	C5H5N+
80.0495	345	C5H6N+
81.0335	37	C5H5O+
81.0573	41	C5H7N+
82.0652	1	C5H8N+
90.034	3	C6H4N+
92.0495	20	C6H6N+
93.0574	8	C6H7N+
94.0651	26	C6H8N+
95.0492	70	C6H7O+
95.0604	63	C5H7N2+
96.0444	6	C5H6NO+
96.0682	70	C5H8N2+
97.0076	2	C8H+
97.0522	14	C5H7NO+
98.0602	1	C5H8NO+
104.0497	1	C7H6N+
105.0448	8	C6H5N2+
107.0604	535	C6H7N2+
108.0445	90	C6H6NO+
108.0681	999	C6H8N2+
109.0522	39	C6H7NO+
109.076	7	C6H9N2+
110.06	5	C6H8NO+
111.0314	1	C5H5NO2+
112.0756	4	C6H10NO+
121.0283	2	C7H5O2+
121.0396	1	C6H5N2O+
122.0601	62	C7H8NO+
123.0441	5	C7H7O2+
123.0552	23	C6H7N2O+
123.0678	6	C7H9NO+
124.0631	171	C6H8N2O+
125.0471	5	C6H7NO2+
138.0788	1	C7H10N2O+
139.0866	27	C7H11N2O+
140.0704	5	C7H10NO2+
