Mass spectrum: N-(3-Amino-4-methoxyphenyl)acetamide; LC-ESI-QFT; MS2; CE: 45; R=17500; [M+H]+
Name: N-(3-Amino-4-methoxyphenyl)acetamide
Formula: C9H12N2O2
Exact mass: 180.0899
SMILES: COC1=C(N)C=C(NC(C)=O)C=C1
InChI: InChI=1S/C9H12N2O2/c1-6(12)11-7-3-4-9(13-2)8(10)5-7/h3-5H,10H2,1-2H3,(H,11,12)
Instrument: Q Exactive Orbitrap (Thermo Scientific)
Instrument type: LC-ESI-QFT
Ms type: MS2
Ion mode: POSITIVE
Ionization: ESI
Fragmentation mode: HCD
Collision energy: 45
Resolution: 17500
Column name: Acquity BEH C18 1.7um, 2.1x150mm (Waters)
Retention time: 4.403 min
Base peak: 79.0211
Precursor m/z: 181.0972
Precursor type: [M+H]+
Precursor intensity: 8026700
m/z	relative intensity	assigned
53.0386	1	C4H5+
80.0494	17	C5H6N+
81.0335	2	C5H5O+
92.0495	2	C6H6N+
94.0652	23	C6H8N+
95.0491	6	C6H7O+
96.0684	1	C5H8N2+
98.0601	1	C5H8NO+
107.0604	391	C6H7N2+
108.0444	228	C6H6NO+
108.0681	261	C6H8N2+
109.0522	22	C6H7NO+
109.0761	5	C6H9N2+
110.0599	2	C6H8NO+
111.0316	2	C5H5NO2+
112.0757	11	C6H10NO+
122.0601	58	C7H8NO+
123.044	14	C7H7O2+
123.0551	6	C6H7N2O+
123.0678	3	C7H9NO+
124.0632	110	C6H8N2O+
125.0472	5	C6H7NO2+
136.0757	2	C8H10NO+
138.0788	12	C7H10N2O+
139.0866	999	C7H11N2O+
140.0706	261	C7H10NO2+
148.0632	3	C8H8N2O+
149.071	13	C8H9N2O+
150.0788	30	C8H10N2O+
163.0866	66	C9H11N2O+
164.0706	2	C9H10NO2+
166.0739	29	C8H10N2O2+
181.0972	178	C9H13N2O2+
