Mass spectrum: Dimethyl terephthalate; LC-ESI-QFT; MS2; CE: 75; R=17500; [M+H]+
Name: Dimethyl terephthalate
Name: dimethyl benzene-1,4-dicarboxylate
Formula: C10H10O4
Exact mass: 194.0579
SMILES: COC(=O)C1=CC=C(C=C1)C(=O)OC
InChI: InChI=1S/C10H10O4/c1-13-9(11)7-3-5-8(6-4-7)10(12)14-2/h3-6H,1-2H3
Instrument: Q Exactive Orbitrap (Thermo Scientific)
Instrument type: LC-ESI-QFT
Ms type: MS2
Ion mode: POSITIVE
Ionization: ESI
Fragmentation mode: HCD
Collision energy: 75
Resolution: 17500
Column name: Acquity BEH C18 1.7um, 2.1x150mm (Waters)
Retention time: 19.241 min
Base peak: 79.0211
Precursor m/z: 195.0652
Precursor type: [M+H]+
Precursor intensity: 731266.265625
m/z	relative intensity	assigned
51.023	37	C4H3+
53.0386	349	C4H5+
77.0386	115	C6H5+
79.0543	253	C6H7+
81.0335	32	C5H5O+
91.0543	27	C7H7+
92.0257	254	C6H4O+
94.0414	46	C6H6O+
95.0492	926	C6H7O+
105.0337	268	C7H5O+
107.0493	56	C7H7O+
109.0651	14	C7H9O+
120.0207	22	C7H4O2+
133.0285	693	C8H5O2+
135.0441	905	C8H7O2+
138.0313	71	C7H6O3+
163.039	999	C9H7O3+
165.055	30	C9H9O3+
