Mass spectrum: Carbofuran; LC-ESI-QFT; MS2; CE: 60; R=17500; [M-H]-
Name: Carbofuran
Name: (2,2-dimethyl-3H-1-benzofuran-7-yl) N-methylcarbamate
Formula: C12H15NO3
Exact mass: 221.1052
SMILES: CNC(=O)OC1=CC=CC2=C1OC(C)(C)C2
InChI: InChI=1S/C12H15NO3/c1-12(2)7-8-5-4-6-9(10(8)16-12)15-11(14)13-3/h4-6H,7H2,1-3H3,(H,13,14)
Instrument: Q Exactive Orbitrap (Thermo Scientific)
Instrument type: LC-ESI-QFT
Ms type: MS2
Ion mode: NEGATIVE
Ionization: ESI
Fragmentation mode: HCD
Collision energy: 60
Resolution: 17500
Column name: Acquity BEH C18 1.7um, 2.1x150mm (Waters)
Retention time: 14.395 min
Base peak: 166.0145
Precursor m/z: 220.0979
Precursor type: [M-H]-
Precursor intensity: 4956591.976807
m/z	relative intensity	assigned
57.0345	52	C3H5O-
83.0139	870	C4H3O2-
107.0377	999	C6H5NO-
136.0767	2	C8H10NO-
