Mass spectrum: 3-Nitrobenzoic acid; LC-ESI-QFT; MS2; CE: 90; R=17500; [M-H]-
Name: 3-Nitrobenzoic acid
Formula: C7H5NO4
Exact mass: 167.0219
SMILES: OC(=O)C1=CC=CC(=C1)[N+]([O-])=O
InChI: InChI=1S/C7H5NO4/c9-7(10)5-2-1-3-6(4-5)8(11)12/h1-4H,(H,9,10)
Instrument: Q Exactive Orbitrap (Thermo Scientific)
Instrument type: LC-ESI-QFT
Ms type: MS2
Ion mode: NEGATIVE
Ionization: ESI
Fragmentation mode: HCD
Collision energy: 90
Resolution: 17500
Column name: Acquity BEH C18 1.7um, 2.1x150mm (Waters)
Retention time: 14.695 min
Base peak: 112.9856
Precursor m/z: 166.0146
Precursor type: [M-H]-
Precursor intensity: 4429831.526611
m/z	relative intensity	assigned
92.0268	86	C6H4O-
95.0138	171	C5H3O2-
108.0218	230	C6H4O2-
122.0248	999	C6H4NO2-
