Mass spectrum: 17beta-Trenbolone; LC-ESI-QFT; MS2; CE: 60; R=17500; [M+H]+
Name: 17beta-Trenbolone
Name: Trenbolone
Name: (8S,13S,14S,17S)-17-hydroxy-13-methyl-2,6,7,8,14,15,16,17-octahydro-1H-cyclopenta[a]phenanthren-3-one
Formula: C18H22O2
Exact mass: 270.1620
SMILES: [H][C@@]12CC[C@H](O)[C@@]1(C)C=CC1=C3CCC(=O)C=C3CC[C@@]21[H]
InChI: InChI=1S/C18H22O2/c1-18-9-8-14-13-5-3-12(19)10-11(13)2-4-15(14)16(18)6-7-17(18)20/h8-10,15-17,20H,2-7H2,1H3/t15-,16+,17+,18+/m1/s1
Instrument: Q Exactive Orbitrap (Thermo Scientific)
Instrument type: LC-ESI-QFT
Ms type: MS2
Ion mode: POSITIVE
Ionization: ESI
Fragmentation mode: HCD
Collision energy: 60
Resolution: 17500
Column name: Acquity BEH C18 1.7um, 2.1x150mm (Waters)
Retention time: 16.997 min
Base peak: 79.0211
Precursor m/z: 271.1693
Precursor type: [M+H]+
Precursor intensity: 8667753.25
m/z	relative intensity	assigned
53.0387	13	C4H5+
55.0179	42	C3H3O+
55.0543	90	C4H7+
57.0336	22	C3H5O+
57.0699	11	C4H9+
65.0385	8	C5H5+
67.0542	97	C5H7+
69.0335	9	C4H5O+
69.0699	30	C5H9+
71.0491	33	C4H7O+
77.0386	3	C6H5+
79.0542	149	C6H7+
81.0699	115	C6H9+
83.0491	409	C5H7O+
85.0647	14	C5H9O+
91.0542	177	C7H7+
93.0699	126	C7H9+
95.0492	46	C6H7O+
95.0855	57	C7H11+
97.0648	23	C6H9O+
103.0543	22	C8H7+
105.0699	248	C8H9+
107.0492	444	C7H7O+
107.0855	112	C8H11+
109.0649	67	C7H9O+
109.1013	22	C8H13+
111.0802	6	C7H11O+
115.054	31	C9H7+
116.0621	7	C9H8+
117.0699	123	C9H9+
118.0778	5	C9H10+
119.0856	88	C9H11+
121.0648	116	C8H9O+
121.1012	15	C9H13+
123.0806	19	C8H11O+
125.0958	6	C8H13O+
128.062	57	C10H8+
129.0699	161	C10H9+
130.0777	28	C10H10+
131.0492	47	C9H7O+
131.0856	206	C10H11+
132.0571	7	C9H8O+
133.0648	360	C9H9O+
133.1012	67	C10H13+
134.0728	5	C9H10O+
135.0804	105	C9H11O+
141.0699	201	C11H9+
142.0778	49	C11H10+
143.0856	230	C11H11+
144.0569	49	C10H8O+
144.0935	9	C11H12+
145.0649	117	C10H9O+
145.1012	226	C11H13+
146.0727	23	C10H10O+
146.1091	13	C11H14+
147.0806	107	C10H11O+
147.117	8	C11H15+
148.0882	56	C10H12O+
149.0966	18	C10H13O+
152.0626	12	C12H8+
153.0698	62	C12H9+
154.0778	39	C12H10+
155.0855	214	C12H11+
156.0933	38	C12H12+
157.0649	298	C11H9O+
157.1012	113	C12H13+
158.0727	34	C11H10O+
159.0805	323	C11H11O+
159.117	28	C12H15+
160.0885	8	C11H12O+
161.0961	65	C11H13O+
162.1041	6	C11H14O+
163.1119	5	C11H15O+
165.0699	111	C13H9+
166.0778	122	C13H10+
167.0856	168	C13H11+
168.0934	65	C13H12+
169.065	16	C12H9O+
169.1012	221	C13H13+
170.0727	18	C12H10O+
170.1091	13	C13H14+
171.0805	126	C12H11O+
171.1169	89	C13H15+
172.0882	16	C12H12O+
173.0962	63	C12H13O+
174.104	9	C12H14O+
175.075	4	C11H11O2+
175.1116	6	C12H15O+
178.0777	100	C14H10+
179.0856	225	C14H11+
180.0934	60	C14H12+
181.1012	199	C14H13+
182.0726	18	C13H10O+
182.1092	31	C14H14+
183.0806	121	C13H11O+
183.1169	180	C14H15+
184.0884	112	C13H12O+
185.0961	206	C13H13O+
185.1327	20	C14H17+
186.104	96	C13H14O+
187.1118	69	C13H15O+
188.1199	9	C13H16O+
189.1274	13	C13H17O+
191.0854	24	C15H11+
192.0933	52	C15H12+
193.1013	133	C15H13+
194.1092	37	C15H14+
195.0806	21	C14H11O+
195.117	148	C15H15+
196.0884	36	C14H12O+
196.1249	26	C15H16+
197.0962	248	C14H13O+
197.1326	47	C15H17+
198.104	227	C14H14O+
199.1118	999	C14H15O+
200.1196	188	C14H16O+
201.1277	9	C14H17O+
204.0931	4	C16H12+
205.1013	63	C16H13+
206.109	34	C16H14+
207.1169	114	C16H15+
208.1249	6	C16H16+
209.0963	35	C15H13O+
209.1325	87	C16H17+
210.1041	45	C15H14O+
210.1401	8	C16H18+
211.1118	161	C15H15O+
211.1481	62	C16H19+
212.1196	119	C15H16O+
213.1275	75	C15H17O+
214.1353	294	C15H18O+
215.1433	30	C15H19O+
218.1092	8	C17H14+
219.1162	17	C17H15+
220.1248	68	C17H16+
221.1327	8	C17H17+
223.1121	36	C16H15O+
223.148	18	C17H19+
224.1197	75	C16H16O+
224.1559	8	C17H20+
225.1275	168	C16H17O+
225.1635	20	C17H21+
226.1349	4	C16H18O+
227.143	358	C16H19O+
228.1509	25	C16H20O+
233.1324	15	C18H17+
235.1481	141	C18H19+
236.1194	7	C17H16O+
237.1277	32	C17H17O+
238.1352	181	C17H18O+
242.1299	17	C16H18O2+
243.1382	6	C16H19O2+
251.1435	9	C18H19O+
253.1587	465	C18H21O+
256.1452	5	C17H20O2+
271.1692	330	C18H23O2+
