Mass spectrum: 17beta-Trenbolone; LC-ESI-QFT; MS2; CE: 45; R=17500; [M+H]+
Name: 17beta-Trenbolone
Name: Trenbolone
Name: (8S,13S,14S,17S)-17-hydroxy-13-methyl-2,6,7,8,14,15,16,17-octahydro-1H-cyclopenta[a]phenanthren-3-one
Formula: C18H22O2
Exact mass: 270.1620
SMILES: [H][C@@]12CC[C@H](O)[C@@]1(C)C=CC1=C3CCC(=O)C=C3CC[C@@]21[H]
InChI: InChI=1S/C18H22O2/c1-18-9-8-14-13-5-3-12(19)10-11(13)2-4-15(14)16(18)6-7-17(18)20/h8-10,15-17,20H,2-7H2,1H3/t15-,16+,17+,18+/m1/s1
Instrument: Q Exactive Orbitrap (Thermo Scientific)
Instrument type: LC-ESI-QFT
Ms type: MS2
Ion mode: POSITIVE
Ionization: ESI
Fragmentation mode: HCD
Collision energy: 45
Resolution: 17500
Column name: Acquity BEH C18 1.7um, 2.1x150mm (Waters)
Retention time: 16.997 min
Base peak: 79.0211
Precursor m/z: 271.1693
Precursor type: [M+H]+
Precursor intensity: 7947648.625
m/z	relative intensity	assigned
55.0179	4	C3H3O+
55.0543	9	C4H7+
57.0335	6	C3H5O+
57.0699	1	C4H9+
67.0541	17	C5H7+
69.0333	1	C4H5O+
69.0698	6	C5H9+
71.049	4	C4H7O+
79.0542	17	C6H7+
81.0698	26	C6H9+
83.0491	91	C5H7O+
85.0647	5	C5H9O+
91.0542	15	C7H7+
93.0699	25	C7H9+
95.0492	3	C6H7O+
95.0855	17	C7H11+
97.0648	5	C6H9O+
103.0544	1	C8H7+
105.0698	31	C8H9+
107.0491	61	C7H7O+
107.0855	36	C8H11+
109.0648	14	C7H9O+
109.1012	11	C8H13+
111.0804	6	C7H11O+
115.0543	2	C9H7+
117.0699	11	C9H9+
119.0856	19	C9H11+
121.0648	37	C8H9O+
121.1011	7	C9H13+
123.0803	6	C8H11O+
125.0959	3	C8H13O+
128.062	2	C10H8+
129.0699	20	C10H9+
130.0782	1	C10H10+
131.0491	5	C9H7O+
131.0855	33	C10H11+
133.0648	84	C9H9O+
133.1011	28	C10H13+
135.0804	23	C9H11O+
141.0698	21	C11H9+
142.0778	1	C11H10+
143.0855	46	C11H11+
144.0572	3	C10H8O+
144.0931	1	C11H12+
145.0647	22	C10H9O+
145.1012	63	C11H13+
146.109	5	C11H14+
147.0805	33	C10H11O+
147.1167	3	C11H15+
148.0882	16	C10H12O+
149.0962	8	C10H13O+
153.07	5	C12H9+
155.0854	23	C12H11+
156.0935	3	C12H12+
157.0648	59	C11H9O+
157.1011	17	C12H13+
158.0724	2	C11H10O+
159.0804	110	C11H11O+
159.1168	11	C12H15+
161.0961	21	C11H13O+
162.1039	3	C11H14O+
163.1116	4	C11H15O+
165.0696	7	C13H9+
166.0778	6	C13H10+
167.0855	22	C13H11+
168.0932	3	C13H12+
169.1011	42	C13H13+
170.1087	1	C13H14+
171.0803	29	C12H11O+
171.1167	37	C13H15+
173.096	22	C12H13O+
175.0753	1	C11H11O2+
175.1116	5	C12H15O+
178.0775	9	C14H10+
179.0855	50	C14H11+
180.0935	5	C14H12+
181.1012	28	C14H13+
182.0725	2	C13H10O+
182.1085	3	C14H14+
183.0806	28	C13H11O+
183.1168	45	C14H15+
184.0882	17	C13H12O+
185.0961	47	C13H13O+
185.1325	6	C14H17+
186.1037	10	C13H14O+
187.1117	36	C13H15O+
188.1203	1	C13H16O+
189.1274	23	C13H17O+
191.0856	2	C15H11+
192.0935	2	C15H12+
193.1012	35	C15H13+
194.1089	4	C15H14+
195.1169	46	C15H15+
196.0885	6	C14H12O+
196.1245	4	C15H16+
197.0962	107	C14H13O+
197.1324	18	C15H17+
198.1039	58	C14H14O+
199.1117	409	C14H15O+
200.1196	27	C14H16O+
201.1275	4	C14H17O+
205.1011	7	C16H13+
206.1086	6	C16H14+
207.117	29	C16H15+
209.096	2	C15H13O+
209.1325	36	C16H17+
210.1039	6	C15H14O+
210.1403	1	C16H18+
211.1117	86	C15H15O+
211.148	28	C16H19+
212.1195	32	C15H16O+
213.1274	19	C15H17O+
214.1352	76	C15H18O+
215.1431	18	C15H19O+
219.1172	2	C17H15+
220.1243	17	C17H16+
223.1117	3	C16H15O+
223.1481	11	C17H19+
224.1196	27	C16H16O+
224.1556	2	C17H20+
225.1274	74	C16H17O+
225.1635	15	C17H21+
227.143	175	C16H19O+
228.1508	9	C16H20O+
233.1322	6	C18H17+
235.148	62	C18H19+
237.1278	2	C17H17O+
238.1351	44	C17H18O+
242.1301	8	C16H18O2+
243.1368	1	C16H19O2+
243.1742	12	C17H23O+
251.1424	7	C18H19O+
253.1586	522	C18H21O+
256.1465	1	C17H20O2+
271.1691	999	C18H23O2+
