Mass spectrum: N-(3-Amino-4-methoxyphenyl)acetamide; LC-ESI-QFT; MS2; CE: 60; R=17500; [M+H]+
Name: N-(3-Amino-4-methoxyphenyl)acetamide
Formula: C9H12N2O2
Exact mass: 180.0899
SMILES: COC1=C(N)C=C(NC(C)=O)C=C1
InChI: InChI=1S/C9H12N2O2/c1-6(12)11-7-3-4-9(13-2)8(10)5-7/h3-5H,10H2,1-2H3,(H,11,12)
Instrument: Q Exactive Orbitrap (Thermo Scientific)
Instrument type: LC-ESI-QFT
Ms type: MS2
Ion mode: POSITIVE
Ionization: ESI
Fragmentation mode: HCD
Collision energy: 60
Resolution: 17500
Column name: Acquity BEH C18 1.7um, 2.1x150mm (Waters)
Retention time: 13.181 min
Base peak: 79.0211
Precursor m/z: 181.0972
Precursor type: [M+H]+
Precursor intensity: 9835591.5625
m/z	relative intensity	assigned
53.0387	1	C4H5+
65.0385	74	C5H5+
67.0416	2	C4H5N+
67.0542	5	C5H7+
80.0495	5	C5H6N+
81.0335	17	C5H5O+
81.0573	3	C5H7N+
82.0651	32	C5H8N+
90.0336	1	C6H4N+
91.0542	1	C7H7+
92.0495	83	C6H6N+
93.0335	48	C6H5O+
93.0573	42	C6H7N+
94.0651	5	C6H8N+
95.049	3	C6H7O+
97.0076	1	C8H+
108.0444	999	C6H6NO+
109.0522	40	C6H7NO+
110.06	730	C6H8NO+
111.044	126	C6H7O2+
121.0285	5	C7H5O2+
121.0397	4	C6H5N2O+
124.0756	1	C7H10NO+
125.0598	8	C7H9O2+
135.0441	1	C8H7O2+
136.0394	18	C7H6NO2+
136.0757	325	C8H10NO+
137.0834	7	C8H11NO+
138.0914	219	C8H12NO+
139.0757	1	C8H11O2+
139.087	1	C7H11N2O+
146.0349	2	C9H6O2+
149.0716	1	C8H9N2O+
164.0705	8	C9H10NO2+
181.0972	14	C9H13N2O2+
