Mass spectrum: 2`,4`,5`-Trihydroxybutyrophenone; LC-ESI-QFT; MS2; CE: 45; R=17500; [M+H]+
Name: 2',4',5'-Trihydroxybutyrophenone
Name: 2,4,5-Trihydroxybutyrophenone
Name: 1-(2,4,5-trihydroxyphenyl)butan-1-one
Formula: C10H12O4
Exact mass: 196.0736
SMILES: CCCC(=O)C1=CC(O)=C(O)C=C1O
InChI: InChI=1S/C10H12O4/c1-2-3-7(11)6-4-9(13)10(14)5-8(6)12/h4-5,12-14H,2-3H2,1H3
Instrument: Q Exactive Orbitrap (Thermo Scientific)
Instrument type: LC-ESI-QFT
Ms type: MS2
Ion mode: POSITIVE
Ionization: ESI
Fragmentation mode: HCD
Collision energy: 45
Resolution: 17500
Column name: Acquity BEH C18 1.7um, 2.1x150mm (Waters)
Retention time: 14.071 min
Base peak: 79.0212
Precursor m/z: 197.0808
Precursor type: [M+H]+
Precursor intensity: 2906406.59375
m/z	relative intensity	assigned
79.0544	8	C6H7+
81.07	8	C6H9+
93.0336	3	C6H5O+
94.0414	4	C6H6O+
95.0491	10	C6H7O+
96.0569	10	C6H8O+
97.065	2	C6H9O+
107.0494	2	C7H7O+
108.0571	2	C7H8O+
109.0648	26	C7H9O+
111.044	18	C6H7O2+
111.0806	4	C7H11O+
122.0362	12	C7H6O2+
123.044	54	C7H7O2+
124.0519	26	C7H8O2+
125.0598	18	C7H9O2+
126.0676	24	C7H10O2+
137.06	3	C8H9O2+
138.0675	999	C8H10O2+
139.039	101	C7H7O3+
139.0753	129	C8H11O2+
152.0469	2	C8H8O3+
153.0547	12	C8H9O3+
154.0625	754	C8H10O3+
155.0703	9	C8H11O3+
167.034	104	C8H7O4+
167.0703	129	C9H11O3+
168.0783	11	C9H12O3+
169.0859	696	C9H13O3+
182.0574	145	C9H10O4+
195.065	4	C10H11O4+
197.0813	137	C10H13O4+
