Mass spectrum: 2`,4`,5`-Trihydroxybutyrophenone; LC-ESI-QFT; MS2; CE: 15; R=17500; [M+H]+
Name: 2',4',5'-Trihydroxybutyrophenone
Name: 2,4,5-Trihydroxybutyrophenone
Name: 1-(2,4,5-trihydroxyphenyl)butan-1-one
Formula: C10H12O4
Exact mass: 196.0736
SMILES: CCCC(=O)C1=CC(O)=C(O)C=C1O
InChI: InChI=1S/C10H12O4/c1-2-3-7(11)6-4-9(13)10(14)5-8(6)12/h4-5,12-14H,2-3H2,1H3
Instrument: Q Exactive Orbitrap (Thermo Scientific)
Instrument type: LC-ESI-QFT
Ms type: MS2
Ion mode: POSITIVE
Ionization: ESI
Fragmentation mode: HCD
Collision energy: 15
Resolution: 17500
Column name: Acquity BEH C18 1.7um, 2.1x150mm (Waters)
Retention time: 14.071 min
Base peak: 79.0212
Precursor m/z: 197.0808
Precursor type: [M+H]+
Precursor intensity: 3362934.5
m/z	relative intensity	assigned
109.065	1	C7H9O+
123.0441	1	C7H7O2+
138.0676	108	C8H10O2+
139.0392	1	C7H7O3+
139.0755	14	C8H11O2+
154.0625	162	C8H10O3+
167.0704	48	C9H11O3+
168.079	1	C9H12O3+
169.086	538	C9H13O3+
182.0576	25	C9H10O4+
197.0811	999	C10H13O4+
