Mass spectrum: 6-Pentyl-2H-pyran-2-one; LC-ESI-QFT; MS2; CE: 75; R=17500; [M-H]-
Name: 6-Pentyl-2H-pyran-2-one
Name: 6-pentylpyran-2-one
Formula: C10H14O2
Exact mass: 166.0994
SMILES: CCCCCC1=CC=CC(=O)O1
InChI: InChI=1S/C10H14O2/c1-2-3-4-6-9-7-5-8-10(11)12-9/h5,7-8H,2-4,6H2,1H3
Instrument: Q Exactive Orbitrap (Thermo Scientific)
Instrument type: LC-ESI-QFT
Ms type: MS2
Ion mode: NEGATIVE
Ionization: ESI
Fragmentation mode: HCD
Collision energy: 75
Resolution: 17500
Column name: Acquity BEH C18 1.7um, 2.1x150mm (Waters)
Retention time: 16.481 min
Base peak: 165.092
Precursor m/z: 165.0921
Precursor type: [M-H]-
Precursor intensity: 34487630.60449
m/z	relative intensity	assigned
106.0421	2	C7H6O-
108.0216	8	C6H4O2-
121.0661	4	C8H9O-
133.0296	2	C8H5O2-
135.0452	4	C8H7O2-
148.0531	293	C9H8O2-
149.0608	999	C9H9O2-
164.0841	5	C10H12O2-
165.0921	876	C10H13O2-
