Mass spectrum: Butoxycarboxim; LC-ESI-QFT; MS2; CE: 60; R=17500; [M+H]+
Name: Butoxycarboxim
Name: [(E)-3-methylsulfonylbutan-2-ylideneamino] N-methylcarbamate
Formula: C7H14N2O4S
Exact mass: 222.0674
SMILES: CNC(=O)O\N=C(/C)C(C)S(C)(=O)=O
InChI: InChI=1S/C7H14N2O4S/c1-5(6(2)14(4,11)12)9-13-7(10)8-3/h6H,1-4H3,(H,8,10)/b9-5+
Instrument: Q Exactive Orbitrap (Thermo Scientific)
Instrument type: LC-ESI-QFT
Ms type: MS2
Ion mode: POSITIVE
Ionization: ESI
Fragmentation mode: HCD
Collision energy: 60
Resolution: 17500
Column name: Acquity BEH C18 1.7um, 2.1x150mm (Waters)
Retention time: 17.855 min
Base peak: 79.0211
Precursor m/z: 223.0747
Precursor type: [M+H]+
Precursor intensity: 24237606.5
m/z	relative intensity	assigned
53.0023	2	C3HO+
53.0386	23	C4H5+
55.0179	1	C3H3O+
65.0385	16	C5H5+
68.9971	11	C3HO2+
77.0384	9	C6H5+
81.0334	2	C5H5O+
93.0336	29	C6H5O+
94.0413	2	C6H6O+
95.0492	126	C6H7O+
103.0542	108	H11N2O2S+
105.0336	18	C7H5O+
105.0448	29	C6H5N2+
109.0649	2	C7H9O+
111.0441	16	C6H7O2+
121.0284	199	C7H5O2+
125.0597	1	C7H9O2+
129.0335	86	CH9N2O3S+
139.039	17	C7H7O3+
147.044	1	CH11N2O4S+
152.0621	26	C4H12N2O2S+
153.07	4	C4H13N2O2S+
165.0699	22	C5H13N2O2S+
166.0778	10	C5H14N2O2S+
167.0855	66	C5H15N2O2S+
169.065	1	C4H13N2O3S+
176.0621	4	C6H12N2O2S+
177.0699	13	C6H13N2O2S+
178.0777	99	C6H14N2O2S+
179.0854	7	C6H15N2O2S+
181.0648	5	C5H13N2O3S+
194.0727	1	C6H14N2O3S+
195.0804	5	C6H15N2O3S+
205.065	1	C7H13N2O3S+
222.0676	1	C7H14N2O4S+
223.0753	999	C7H15N2O4S+
