Mass spectrum: 2,4-Dichlorophenol; LC-ESI-QFT; MS2; CE: 45; R=17500; [M+H]+
Name: 2,4-Dichlorophenol
Formula: C6H4Cl2O
Exact mass: 161.9639
SMILES: OC1=C(Cl)C=C(Cl)C=C1
InChI: InChI=1S/C6H4Cl2O/c7-4-1-2-6(9)5(8)3-4/h1-3,9H
Instrument: Q Exactive Orbitrap (Thermo Scientific)
Instrument type: LC-ESI-QFT
Ms type: MS2
Ion mode: POSITIVE
Ionization: ESI
Fragmentation mode: HCD
Collision energy: 45
Resolution: 17500
Column name: Acquity BEH C18 1.7um, 2.1x150mm (Waters)
Retention time: 25.548 min
Base peak: 79.0211
Precursor m/z: 162.9712
Precursor type: [M+H]+
Precursor intensity: 2324648.5625
m/z	relative intensity	assigned
53.0386	1	C4H5+
71.9518	7	Cl2H2+
74.9753	1	Cl2H5+
84.9597	999	CH3Cl2+
102.9703	125	CH5Cl2O+
131.9513	1	C5H2Cl2+
132.9609	25	C5H3Cl2+
148.9558	26	C5H3Cl2O+
150.9714	20	C5H5Cl2O+
162.9722	8	C6H5Cl2O+
