Mass spectrum: Cyprodinil; LC-ESI-QFT; MS2; CE: 90; R=17500; [M+H]+
Name: Cyprodinil
Name: 4-cyclopropyl-6-methyl-N-phenylpyrimidin-2-amine
Formula: C14H15N3
Exact mass: 225.1266
SMILES: CC1=NC(NC2=CC=CC=C2)=NC(=C1)C1CC1
InChI: InChI=1S/C14H15N3/c1-10-9-13(11-7-8-11)17-14(15-10)16-12-5-3-2-4-6-12/h2-6,9,11H,7-8H2,1H3,(H,15,16,17)
Instrument: Q Exactive Orbitrap (Thermo Scientific)
Instrument type: LC-ESI-QFT
Ms type: MS2
Ion mode: POSITIVE
Ionization: ESI
Fragmentation mode: HCD
Collision energy: 90
Resolution: 17500
Column name: Acquity BEH C18 1.7um, 2.1x150mm (Waters)
Retention time: 17.696 min
Base peak: 79.0211
Precursor m/z: 226.1339
Precursor type: [M+H]+
Precursor intensity: 52312196.375
m/z	relative intensity	assigned
50.0152	2	C4H2+
51.023	1	C4H3+
53.0386	80	C4H5+
54.0338	5	C3H4N+
55.0291	2	C2H3N2+
55.0542	4	C4H7+
56.0495	8	C3H6N+
57.0447	1	C2H5N2+
58.0651	7	C3H8N+
63.0229	4	C5H3+
65.0385	296	C5H5+
66.0337	10	C4H4N+
66.0464	51	C5H6+
67.029	24	C3H3N2+
67.0416	35	C4H5N+
67.0542	62	C5H7+
68.0243	48	C2H2N3+
68.0494	69	C4H6N+
70.0651	2	C4H8N+
77.0385	41	C6H5+
78.0337	8	C5H4N+
78.0464	14	C6H6+
79.0542	243	C6H7+
80.0494	108	C5H6N+
81.0573	15	C5H7N+
81.0699	97	C6H9+
82.0651	46	C5H8N+
83.0605	7	C4H7N2+
84.0808	16	C5H10N+
89.0385	54	C7H5+
90.0338	6	C6H4N+
91.0542	383	C7H7+
92.0495	200	C6H6N+
92.0621	21	C7H8+
93.0573	999	C6H7N+
94.0412	8	C4H4N3+
94.0651	57	C6H8N+
95.0491	188	C4H5N3+
96.0807	2	C6H10N+
103.0416	4	C7H5N+
103.0542	3	C8H7+
104.0494	50	C7H6N+
105.0447	86	C6H5N2+
106.0651	180	C7H8N+
107.0604	10	C6H7N2+
107.0729	30	C7H9N+
108.0682	62	C6H8N2+
108.0807	181	C7H10N+
109.0648	4	C5H7N3+
109.0761	16	C6H9N2+
109.0884	2	C7H11N+
115.0542	25	C9H7+
116.0495	67	C8H6N+
117.0447	11	C7H5N2+
117.0573	60	C8H7N+
117.0699	4	C9H9+
118.0525	240	C7H6N2+
118.065	46	C8H8N+
119.0604	155	C7H7N2+
123.0917	4	C7H11N2+
128.0492	6	C9H6N+
128.0619	2	C10H8+
129.0698	2	C10H9+
130.04	8	C7H4N3+
130.0652	12	C9H8N+
131.0603	86	C8H7N2+
132.0682	88	C8H8N2+
133.076	52	C8H9N2+
134.0712	3	C7H8N3+
140.0494	13	C10H6N+
141.0699	3	C11H9+
142.0652	15	C10H8N+
143.0604	53	C9H7N2+
143.073	11	C10H9N+
144.0554	4	C8H6N3+
144.0807	27	C10H10N+
145.0649	2	C8H7N3+
145.0759	22	C9H9N2+
148.0868	7	C8H10N3+
150.1022	1	C8H12N3+
152.0617	2	C12H8+
153.0573	1	C11H7N+
154.0649	9	C11H8N+
155.0603	5	C10H7N2+
156.0682	13	C10H8N2+
156.0806	2	C11H10N+
157.0759	8	C10H9N2+
157.0887	1	C11H11N+
158.0839	4	C10H10N2+
159.0915	13	C10H11N2+
165.0701	12	C13H9+
166.0652	10	C12H8N+
167.0611	6	C11H7N2+
167.0728	52	C12H9N+
168.0681	26	C11H8N2+
168.0805	19	C12H10N+
169.0634	5	C10H7N3+
169.0759	19	C11H9N2+
170.0839	4	C11H10N2+
171.0916	5	C11H11N2+
179.0603	2	C12H7N2+
180.0808	8	C13H10N+
181.076	19	C12H9N2+
181.086	1	C13H11N+
181.0887	2	C13H11N+
182.0715	5	C11H8N3+
182.0837	19	C12H10N2+
182.0962	3	C13H12N+
183.0791	15	C11H9N3+
183.0917	11	C12H11N2+
184.0869	18	C11H10N3+
184.0972	1	C12H12N2+
184.099	1	C12H12N2+
185.1073	8	C12H13N2+
191.0731	7	C14H9N+
192.0807	2	C14H10N+
193.0761	69	C13H9N2+
193.0874	3	C14H11N+
194.0839	44	C13H10N2+
195.0916	2	C13H11N2+
196.0868	7	C12H10N3+
197.0943	9	C12H11N3+
198.1022	10	C12H12N3+
199.1104	1	C12H13N3+
199.1236	1	C13H15N2+
206.0836	7	C14H10N2+
207.0917	47	C14H11N2+
208.0994	11	C14H12N2+
209.1071	9	C14H13N2+
210.1025	78	C13H12N3+
211.1105	4	C13H13N3+
224.1182	20	C14H14N3+
226.1338	35	C14H16N3+
