Mass spectrum: Neopentyl glycol dibenzoate; LC-ESI-QFT; MS2; CE: 15; R=17500; [M+H]+
Name: Neopentyl glycol dibenzoate
Name: (3-benzoyloxy-2,2-dimethylpropyl) benzoate
Formula: C19H20O4
Exact mass: 312.1362
SMILES: CC(C)(COC(=O)C1=CC=CC=C1)COC(=O)C1=CC=CC=C1
InChI: InChI=1S/C19H20O4/c1-19(2,13-22-17(20)15-9-5-3-6-10-15)14-23-18(21)16-11-7-4-8-12-16/h3-12H,13-14H2,1-2H3
Instrument: Q Exactive Orbitrap (Thermo Scientific)
Instrument type: LC-ESI-QFT
Ms type: MS2
Ion mode: POSITIVE
Ionization: ESI
Fragmentation mode: HCD
Collision energy: 15
Resolution: 17500
Column name: Acquity BEH C18 1.7um, 2.1x150mm (Waters)
Retention time: 19.160 min
Base peak: 79.0211
Precursor m/z: 313.1434
Precursor type: [M+H]+
Precursor intensity: 9146300
m/z	relative intensity	assigned
91.0542	999	C7H7+
149.0234	611	C8H5O3+
