Mass spectrum: Dinoseb; LC-ESI-QFT; MS2; CE: 90; R=17500; [M-H]-
Name: Dinoseb
Name: 2-butan-2-yl-4,6-dinitrophenol
Formula: C10H12N2O5
Exact mass: 240.0746
SMILES: CCC(C)C1=CC(=CC(=C1O)[N+]([O-])=O)[N+]([O-])=O
InChI: InChI=1S/C10H12N2O5/c1-3-6(2)8-4-7(11(14)15)5-9(10(8)13)12(16)17/h4-6,13H,3H2,1-2H3
Instrument: Q Exactive Orbitrap (Thermo Scientific)
Instrument type: LC-ESI-QFT
Ms type: MS2
Ion mode: NEGATIVE
Ionization: ESI
Fragmentation mode: HCD
Collision energy: 90
Resolution: 17500
Column name: Acquity BEH C18 1.7um, 2.1x150mm (Waters)
Retention time: 18.834 min
Base peak: 239.0673
Precursor m/z: 239.0673
Precursor type: [M-H]-
Precursor intensity: 90702662.01563
m/z	relative intensity	assigned
55.019	1	C3H3O-
64.0193	6	C4H2N-
65.0032	4	C4HO-
65.0146	1	C3HN2-
65.0397	8	C5H5-
65.9985	15	C3NO-
67.0189	5	C4H3O-
68.0143	1	C3H2NO-
68.9982	7	C3HO2-
75.024	3	C6H3-
76.0193	2	C5H2N-
77.0397	96	C6H5-
78.0351	1	C5H4N-
79.0189	2	C5H3O-
79.0553	3	C6H7-
81.0346	7	C5H5O-
81.071	5	C6H9-
83.0502	1	C5H7O-
90.035	2	C6H4N-
91.0553	8	C7H7-
92.0267	3	C6H4O-
93.0346	31	C6H5O-
94.03	5	C5H4NO-
95.0138	2	C5H3O2-
95.0501	1	C6H7O-
103.0553	12	C8H7-
104.027	4	C7H4O-
104.0506	1	C7H6N-
105.022	2	C6H3NO-
105.0346	7	C7H5O-
107.0502	2	C7H7O-
108.0218	6	C6H4O2-
109.0294	3	C6H5O2-
110.0247	2	C5H4NO2-
114.0349	3	C8H4N-
118.0298	3	C7H4NO-
119.0502	3	C8H7O-
121.0295	80	C7H5O2-
122.0248	5	C6H4NO2-
122.0373	40	C7H6O2-
123.0451	10	C7H7O2-
125.0118	2	C5H3NO3-
131.0377	1	C8H5NO-
132.0216	5	C8H4O2-
132.0452	5	C8H6NO-
133.0296	7	C8H5O2-
134.0248	999	C7H4NO2-
135.0326	48	C7H5NO2-
135.045	25	C8H7O2-
136.0403	62	C7H6NO2-
136.0526	6	C8H8O2-
137.0244	3	C7H5O3-
138.0196	37	C6H4NO3-
140.0355	6	C6H6NO3-
145.0296	15	C9H5O2-
145.0659	2	C10H9O-
146.0248	12	C8H4NO2-
146.0373	24	C9H6O2-
147.0452	23	C9H7O2-
148.0405	44	C8H6NO2-
148.0528	8	C9H8O2-
149.0244	40	C8H5O3-
149.048	6	C8H7NO2-
150.0321	7	C8H6O3-
150.0561	14	C8H8NO2-
151.0275	20	C7H5NO3-
151.0397	2	C8H7O3-
151.0764	21	C9H11O2-
152.0354	1	C7H6NO3-
154.0271	2	C7H6O4-
159.0322	5	C9H5NO2-
159.0452	1	C10H7O2-
160.0404	16	C9H6NO2-
162.0197	124	C8H4NO3-
163.0276	48	C8H5NO3-
163.0398	20	C9H7O3-
164.0355	23	C8H6NO3-
164.0478	30	C9H8O3-
166.0144	2	C7H4NO4-
174.056	3	C10H8NO2-
175.028	2	C9H5NO3-
176.0353	99	C9H6NO3-
177.0432	34	C9H7NO3-
178.051	61	C9H8NO3-
179.0224	25	C8H5NO4-
179.0711	1	C10H11O3-
180.0303	6	C8H6NO4-
190.0512	5	C10H8NO3-
192.0667	19	C10H10NO3-
193.0255	110	C8H5N2O4-
194.0459	60	C9H8NO4-
207.0413	11	C9H7N2O4-
208.0616	3	C10H10NO4-
209.0204	55	C8H5N2O5-
