Mass spectrum: Panthenol; LC-ESI-QFT; MS2; CE: 90; R=17500; [M+H]+
Name: Panthenol
Formula: C9H19NO4
Exact mass: 205.1314
SMILES: CC(C)(CO)C(O)C(=O)NCCCO
InChI: InChI=1S/C9H19NO4/c1-9(2,6-12)7(13)8(14)10-4-3-5-11/h7,11-13H,3-6H2,1-2H3,(H,10,14)
Instrument: Q Exactive Orbitrap (Thermo Scientific)
Instrument type: LC-ESI-QFT
Ms type: MS2
Ion mode: POSITIVE
Ionization: ESI
Fragmentation mode: HCD
Collision energy: 90
Resolution: 17500
Column name: Acquity BEH C18 1.7um, 2.1x150mm (Waters)
Retention time: 10.001 min
Base peak: 79.0211
Precursor m/z: 206.1387
Precursor type: [M+H]+
Precursor intensity: 33203640.0625
m/z	relative intensity	assigned
53.0386	24	C4H5+
77.0385	14	C6H5+
79.0542	249	C6H7+
81.0334	1	C5H5O+
95.0491	75	C6H7O+
103.0543	200	C8H7+
105.0699	999	C8H9+
120.081	1	C8H10N+
130.0652	23	C9H8N+
