Mass spectrum: Panthenol; LC-ESI-QFT; MS2; CE: 90; R=17500; [M-H]-
Name: Panthenol
Formula: C9H19NO4
Exact mass: 205.1314
SMILES: CC(C)(CO)C(O)C(=O)NCCCO
InChI: InChI=1S/C9H19NO4/c1-9(2,6-12)7(13)8(14)10-4-3-5-11/h7,11-13H,3-6H2,1-2H3,(H,10,14)
Instrument: Q Exactive Orbitrap (Thermo Scientific)
Instrument type: LC-ESI-QFT
Ms type: MS2
Ion mode: NEGATIVE
Ionization: ESI
Fragmentation mode: HCD
Collision energy: 90
Resolution: 17500
Column name: Acquity BEH C18 1.7um, 2.1x150mm (Waters)
Retention time: 8.174 min
Base peak: 204.1241
Precursor m/z: 204.1241
Precursor type: [M-H]-
Precursor intensity: 4679896.883057
m/z	relative intensity	assigned
55.0189	469	C3H3O-
71.0503	669	C4H7O-
72.0455	999	C3H6NO-
74.0612	191	C3H8NO-
99.0452	58	C5H7O2-
100.0404	8	C4H6NO2-
102.0563	33	C4H8NO2-
108.0821	14	C7H10N-
118.0508	9	C4H8NO3-
