Mass spectrum: N-Octyl-2-pyrrolidone; LC-ESI-QFT; MS2; CE: 45; R=17500; [M+H]+
Name: N-Octyl-2-pyrrolidone
Name: 1-octylpyrrolidin-2-one
Formula: C12H23NO
Exact mass: 197.1780
SMILES: CCCCCCCCN1CCCC1=O
InChI: InChI=1S/C12H23NO/c1-2-3-4-5-6-7-10-13-11-8-9-12(13)14/h2-11H2,1H3
Instrument: Q Exactive Orbitrap (Thermo Scientific)
Instrument type: LC-ESI-QFT
Ms type: MS2
Ion mode: POSITIVE
Ionization: ESI
Fragmentation mode: HCD
Collision energy: 45
Resolution: 17500
Column name: Acquity BEH C18 1.7um, 2.1x150mm (Waters)
Retention time: 18.525 min
Base peak: 79.0211
Precursor m/z: 198.1852
Precursor type: [M+H]+
Precursor intensity: 41794901.25
m/z	relative intensity	assigned
53.0022	1	C3HO+
55.0179	4	C3H3O+
55.0542	35	C4H7+
57.0699	32	C4H9+
58.0651	2	C3H8N+
67.0542	5	C5H7+
69.0698	47	C5H9+
70.0651	1	C4H8N+
71.0491	2	C4H7O+
71.0855	15	C5H11+
72.0443	3	C3H6NO+
72.0808	6	C4H10N+
79.0542	5	C6H7+
81.0699	14	C6H9+
82.0651	3	C5H8N+
83.0491	3	C5H7O+
83.0855	59	C6H11+
84.0809	1	C5H10N+
85.0648	2	C5H9O+
85.1012	4	C6H13+
86.06	12	C4H8NO+
86.0964	3	C5H12N+
93.0699	10	C7H9+
95.0855	13	C7H11+
96.0808	4	C6H10N+
97.0648	11	C6H9O+
97.1012	35	C7H13+
100.0757	17	C5H10NO+
100.1121	2	C6H14N+
107.0855	10	C8H11+
110.0964	3	C7H12N+
111.0805	8	C7H11O+
114.0914	9	C6H12NO+
114.1277	2	C7H16N+
121.1012	9	C9H13+
124.1121	3	C8H14N+
125.0962	4	C8H13O+
128.1069	2	C7H14NO+
128.1434	2	C8H18N+
135.1166	1	C10H15+
142.1227	1	C8H16NO+
156.1751	2	C10H22N+
163.148	2	C12H19+
180.1747	2	C12H22N+
198.1852	999	C12H24NO+
