Mass spectrum: Bis(2-butoxyethyl) decanedioate; LC-ESI-QFT; MS2; CE: 15; R=17500; [M+H]+
Name: Bis(2-butoxyethyl) decanedioate
Name: Bis(2-butoxyethyl) sebacate
Formula: C22H42O6
Exact mass: 402.2981
SMILES: CCCCOCCOC(=O)CCCCCCCCC(=O)OCCOCCCC
InChI: InChI=1S/C22H42O6/c1-3-5-15-25-17-19-27-21(23)13-11-9-7-8-10-12-14-22(24)28-20-18-26-16-6-4-2/h3-20H2,1-2H3
Instrument: Q Exactive Orbitrap (Thermo Scientific)
Instrument type: LC-ESI-QFT
Ms type: MS2
Ion mode: POSITIVE
Ionization: ESI
Fragmentation mode: HCD
Collision energy: 15
Resolution: 17500
Column name: Acquity BEH C18 1.7um, 2.1x150mm (Waters)
Retention time: 20.199 min
Base peak: 79.0212
Precursor m/z: 403.3054
Precursor type: [M+H]+
Precursor intensity: 2919067.25
m/z	relative intensity	assigned
55.0543	6	C4H7+
57.0699	7	C4H9+
83.0854	7	C6H11+
101.0962	28	C6H13O+
211.1332	9	C12H19O3+
213.1486	60	C12H21O3+
229.1437	103	C12H21O4+
273.1696	14	C14H25O5+
285.2063	237	C16H29O4+
329.2326	999	C18H33O5+
