Mass spectrum: UK-156819; LC-ESI-QFT; MS2; CE: 45; R=17500; [M+H]+
Name: UK-156819
Name: 5-(2-Methyl-3-(pyridin-3-yl)-1H-indol-1-yl)pentanoic acid
Name: 5-(2-methyl-3-pyridin-3-ylindol-1-yl)pentanoic acid
Formula: C19H20N2O2
Exact mass: 308.1525
SMILES: CC1=C(C2=C(C=CC=C2)N1CCCCC(O)=O)C1=CN=CC=C1
InChI: InChI=1S/C19H20N2O2/c1-14-19(15-7-6-11-20-13-15)16-8-2-3-9-17(16)21(14)12-5-4-10-18(22)23/h2-3,6-9,11,13H,4-5,10,12H2,1H3,(H,22,23)
Instrument: Q Exactive Orbitrap (Thermo Scientific)
Instrument type: LC-ESI-QFT
Ms type: MS2
Ion mode: POSITIVE
Ionization: ESI
Fragmentation mode: HCD
Collision energy: 45
Resolution: 17500
Column name: Acquity BEH C18 1.7um, 2.1x150mm (Waters)
Retention time: 14.641 min
Base peak: 79.0211
Precursor m/z: 309.1598
Precursor type: [M+H]+
Precursor intensity: 24415092.75
m/z	relative intensity	assigned
55.0543	28	C4H7+
59.0491	6	C3H7O+
80.0494	1	C5H6N+
83.0491	13	C5H7O+
101.0597	14	C5H9O2+
106.0287	1	C6H4NO+
106.0652	1	C7H8N+
130.065	2	C9H8N+
168.0808	1	C12H10N+
170.0965	1	C12H12N+
180.0811	2	C13H10N+
182.0967	3	C13H12N+
184.1121	1	C13H14N+
192.0809	3	C14H10N+
194.0838	10	C13H10N2+
204.0807	1	C15H10N+
206.0841	3	C14H10N2+
207.0917	16	C14H11N2+
208.0995	131	C14H12N2+
209.1072	240	C14H13N2+
219.0926	1	C15H11N2+
220.0998	3	C15H12N2+
221.1072	55	C15H13N2+
222.1151	13	C15H14N2+
223.123	6	C15H15N2+
232.0991	4	C16H12N2+
235.1228	7	C16H15N2+
245.1073	21	C17H13N2+
246.1273	1	C18H16N+
247.1229	67	C17H15N2+
248.1306	19	C17H16N2+
249.1383	3	C17H17N2+
258.1139	1	C18H14N2+
263.1541	34	C18H19N2+
273.1384	15	C19H17N2+
291.149	37	C19H19N2O+
294.1362	3	C18H18N2O2+
309.1595	999	C19H21N2O2+
