Mass spectrum: Terephthalic acid; LC-ESI-QFT; MS2; CE: 45; R=17500; [M-H]-
Name: Terephthalic acid
Formula: C8H6O4
Exact mass: 166.0266
SMILES: OC(=O)C1=CC=C(C=C1)C(O)=O
InChI: InChI=1S/C8H6O4/c9-7(10)5-1-2-6(4-3-5)8(11)12/h1-4H,(H,9,10)(H,11,12)
Instrument: Q Exactive Orbitrap (Thermo Scientific)
Instrument type: LC-ESI-QFT
Ms type: MS2
Ion mode: NEGATIVE
Ionization: ESI
Fragmentation mode: HCD
Collision energy: 45
Resolution: 17500
Column name: Acquity BEH C18 1.7um, 2.1x150mm (Waters)
Retention time: 13.283 min
Base peak: 165.0193
Precursor m/z: 165.0193
Precursor type: [M-H]-
Precursor intensity: 6497957.421143
m/z	relative intensity	assigned
77.0395	1	C6H5-
93.0346	1	C6H5O-
120.0211	1	C7H4O2-
121.0295	999	C7H5O2-
165.0193	14	C8H5O4-
