Mass spectrum: Flavone; LC-ESI-QFT; MS2; CE: 60; R=17500; [M+H]+
Name: Flavone
Name: 2-phenylchromen-4-one
Formula: C15H10O2
Exact mass: 222.0681
SMILES: O=C1C=C(OC2=CC=CC=C12)C1=CC=CC=C1
InChI: InChI=1S/C15H10O2/c16-13-10-15(11-6-2-1-3-7-11)17-14-9-5-4-8-12(13)14/h1-10H
Instrument: Q Exactive Orbitrap (Thermo Scientific)
Instrument type: LC-ESI-QFT
Ms type: MS2
Ion mode: POSITIVE
Ionization: ESI
Fragmentation mode: HCD
Collision energy: 60
Resolution: 17500
Column name: Acquity BEH C18 1.7um, 2.1x150mm (Waters)
Retention time: 17.855 min
Base peak: 79.0211
Precursor m/z: 223.0754
Precursor type: [M+H]+
Precursor intensity: 24237606.5
m/z	relative intensity	assigned
53.0023	2	C3HO+
53.0386	23	C4H5+
55.0179	1	C3H3O+
65.0385	16	C5H5+
68.9971	11	C3HO2+
77.0384	9	C6H5+
81.0334	2	C5H5O+
93.0336	29	C6H5O+
94.0413	2	C6H6O+
95.0492	126	C6H7O+
103.0542	108	C8H7+
105.0336	18	C7H5O+
109.0649	2	C7H9O+
111.0441	16	C6H7O2+
121.0284	199	C7H5O2+
125.0597	1	C7H9O2+
129.0335	86	C9H5O+
147.044	1	C9H7O2+
152.0621	26	C12H8+
153.07	4	C12H9+
165.0699	22	C13H9+
166.0778	10	C13H10+
167.0855	66	C13H11+
169.065	1	C12H9O+
176.0621	4	C14H8+
177.0699	13	C14H9+
178.0777	99	C14H10+
179.0854	7	C14H11+
181.0648	5	C13H9O+
194.0727	1	C14H10O+
195.0804	5	C14H11O+
205.065	1	C15H9O+
222.0676	1	C15H10O2+
223.0753	999	C15H11O2+
