Mass spectrum: 2,5-Dimethylbenzenesulfonic acid; LC-ESI-QFT; MS2; CE: 60; R=17500; [M-H]-
Name: 2,5-Dimethylbenzenesulfonic acid
Formula: C8H10O3S
Exact mass: 186.0351
SMILES: CC1=CC=C(C)C(=C1)S(O)(=O)=O
InChI: InChI=1S/C8H10O3S/c1-6-3-4-7(2)8(5-6)12(9,10)11/h3-5H,1-2H3,(H,9,10,11)
Instrument: Q Exactive Orbitrap (Thermo Scientific)
Instrument type: LC-ESI-QFT
Ms type: MS2
Ion mode: NEGATIVE
Ionization: ESI
Fragmentation mode: HCD
Collision energy: 60
Resolution: 17500
Column name: Acquity BEH C18 1.7um, 2.1x150mm (Waters)
Retention time: 12.710 min
Base peak: 185.0277
Precursor m/z: 185.0278
Precursor type: [M-H]-
Precursor intensity: 37254646.73145
m/z	relative intensity	assigned
79.9574	999	O3S-
80.9651	4	HO3S-
120.0582	1	C8H8O-
121.0659	351	C8H9O-
185.0277	494	C8H9O3S-
