Mass spectrum: Cyprodinil; LC-ESI-QFT; MS2; CE: 45; R=17500; [M+H]+
Name: Cyprodinil
Name: 4-cyclopropyl-6-methyl-N-phenylpyrimidin-2-amine
Formula: C14H15N3
Exact mass: 225.1266
SMILES: CC1=NC(NC2=CC=CC=C2)=NC(=C1)C1CC1
InChI: InChI=1S/C14H15N3/c1-10-9-13(11-7-8-11)17-14(15-10)16-12-5-3-2-4-6-12/h2-6,9,11H,7-8H2,1H3,(H,15,16,17)
Instrument: Q Exactive Orbitrap (Thermo Scientific)
Instrument type: LC-ESI-QFT
Ms type: MS2
Ion mode: POSITIVE
Ionization: ESI
Fragmentation mode: HCD
Collision energy: 45
Resolution: 17500
Column name: Acquity BEH C18 1.7um, 2.1x150mm (Waters)
Retention time: 17.696 min
Base peak: 79.0211
Precursor m/z: 226.1339
Precursor type: [M+H]+
Precursor intensity: 53570583.875
m/z	relative intensity	assigned
58.0651	3	C3H8N+
67.0542	2	C5H7+
68.0243	4	C2H2N3+
80.0493	1	C5H6N+
81.0698	1	C6H9+
82.0651	1	C5H8N+
83.0604	2	C4H7N2+
91.0542	5	C7H7+
92.0494	3	C6H6N+
93.0573	9	C6H7N+
94.0651	1	C6H8N+
106.0651	7	C7H8N+
108.0682	2	C6H8N2+
108.0807	33	C7H10N+
109.076	2	C6H9N2+
109.0885	1	C7H11N+
116.0496	1	C8H6N+
117.0571	1	C8H7N+
118.0525	2	C7H6N2+
118.0651	4	C8H8N+
119.0604	9	C7H7N2+
123.0916	4	C7H11N2+
131.0602	1	C8H7N2+
132.068	2	C8H8N2+
133.076	20	C8H9N2+
143.0603	2	C9H7N2+
144.0807	13	C10H10N+
145.076	2	C9H9N2+
159.0916	5	C10H11N2+
168.0809	1	C12H10N+
169.0754	1	C11H9N2+
183.0917	1	C12H11N2+
184.0869	5	C11H10N3+
185.1073	11	C12H13N2+
194.0836	2	C13H10N2+
198.1028	2	C12H12N3+
208.0996	1	C14H12N2+
209.1075	10	C14H13N2+
210.1025	12	C13H12N3+
211.1105	5	C13H13N3+
224.1184	1	C14H14N3+
226.1338	999	C14H16N3+
