Mass spectrum: UK-156819; LC-ESI-QFT; MS2; CE: 30; R=17500; [M-H]-
Name: UK-156819
Name: 5-(2-Methyl-3-(pyridin-3-yl)-1H-indol-1-yl)pentanoic acid
Name: 5-(2-methyl-3-pyridin-3-ylindol-1-yl)pentanoic acid
Formula: C19H20N2O2
Exact mass: 308.1525
SMILES: CC1=C(C2=C(C=CC=C2)N1CCCCC(O)=O)C1=CN=CC=C1
InChI: InChI=1S/C19H20N2O2/c1-14-19(15-7-6-11-20-13-15)16-8-2-3-9-17(16)21(14)12-5-4-10-18(22)23/h2-3,6-9,11,13H,4-5,10,12H2,1H3,(H,22,23)
Instrument: Q Exactive Orbitrap (Thermo Scientific)
Instrument type: LC-ESI-QFT
Ms type: MS2
Ion mode: NEGATIVE
Ionization: ESI
Fragmentation mode: HCD
Collision energy: 30
Resolution: 17500
Column name: Acquity BEH C18 1.7um, 2.1x150mm (Waters)
Retention time: 14.642 min
Base peak: 307.1452
Precursor m/z: 307.1452
Precursor type: [M-H]-
Precursor intensity: 7679487.244629
m/z	relative intensity	assigned
99.0451	4	C5H7O2-
205.0776	1	C14H9N2-
206.0849	1	C14H10N2-
207.0926	999	C14H11N2-
238.0748	1	C14H10N2O2-
263.156	1	C18H19N2-
307.1452	24	C19H19N2O2-
