Mass spectrum: Alachlor; LC-ESI-QFT; MS2; CE: 30; R=17500; [M+H]+
Name: Alachlor
Name: 2-chloro-N-(2,6-diethylphenyl)-N-(methoxymethyl)acetamide
Formula: C14H20ClNO2
Exact mass: 269.1183
SMILES: CCC1=CC=CC(CC)=C1N(COC)C(=O)CCl
InChI: InChI=1S/C14H20ClNO2/c1-4-11-7-6-8-12(5-2)14(11)16(10-18-3)13(17)9-15/h6-8H,4-5,9-10H2,1-3H3
Instrument: Q Exactive Orbitrap (Thermo Scientific)
Instrument type: LC-ESI-QFT
Ms type: MS2
Ion mode: POSITIVE
Ionization: ESI
Fragmentation mode: HCD
Collision energy: 30
Resolution: 17500
Column name: Acquity BEH C18 1.7um, 2.1x150mm (Waters)
Retention time: 18.208 min
Base peak: 79.0211
Precursor m/z: 270.1255
Precursor type: [M+H]+
Precursor intensity: 1440641.5
m/z	relative intensity	assigned
59.0492	336	C3H7O+
90.0106	166	C3H5ClN+
95.0128	416	C5H3O2+
131.0857	33	C10H11+
146.096	38	C10H12N+
147.1033	24	C10H13N+
148.1121	547	C10H14N+
149.0961	40	C10H13O+
158.0497	142	C8H11ClO+
162.1279	695	C11H16N+
163.1114	107	C11H15O+
174.0909	22	C11H12NO+
206.0732	73	C12H13ClN+
208.0888	50	C12H15ClN+
214.1122	226	C12H19ClO+
220.0889	109	C13H15ClN+
224.0839	576	C12H15ClNO+
238.0996	999	C13H17ClNO+
