Mass spectrum: 4-Nonylphenol; LC-ESI-QFT; MS2; CE: 60; R=17500; [M-H]-
Name: 4-Nonylphenol
Formula: C15H24O
Exact mass: 220.1827
SMILES: CCCCCCCCCC1=CC=C(O)C=C1
InChI: InChI=1S/C15H24O/c1-2-3-4-5-6-7-8-9-14-10-12-15(16)13-11-14/h10-13,16H,2-9H2,1H3
Instrument: Q Exactive Orbitrap (Thermo Scientific)
Instrument type: LC-ESI-QFT
Ms type: MS2
Ion mode: NEGATIVE
Ionization: ESI
Fragmentation mode: HCD
Collision energy: 60
Resolution: 17500
Column name: Acquity BEH C18 1.7um, 2.1x150mm (Waters)
Retention time: 20.013 min
Base peak: 112.9856
Precursor m/z: 219.1754
Precursor type: [M-H]-
Precursor intensity: 273410.6870117
m/z	relative intensity	assigned
203.1438	138	C14H19O-
219.1755	999	C15H23O-
