Mass spectrum: dl-Norgestrel; LC-ESI-QFT; MS2; CE: 30; R=17500; [M+H]+
Name: dl-Norgestrel
Name: (8R,9S,10R,13S,14S)-13-ethyl-17-ethynyl-17-hydroxy-1,2,6,7,8,9,10,11,12,14,15,16-dodecahydrocyclopenta[a]phenanthren-3-one
Formula: C21H28O2
Exact mass: 312.2089
SMILES: CC[C@]12CC[C@H]3[C@@H](CCC4=CC(=O)CC[C@H]34)[C@@H]1CCC2(O)C#C
InChI: InChI=1S/C21H28O2/c1-3-20-11-9-17-16-8-6-15(22)13-14(16)5-7-18(17)19(20)10-12-21(20,23)4-2/h2,13,16-19,23H,3,5-12H2,1H3/t16-,17+,18+,19-,20-,21?/m0/s1
Instrument: Q Exactive Orbitrap (Thermo Scientific)
Instrument type: LC-ESI-QFT
Ms type: MS2
Ion mode: POSITIVE
Ionization: ESI
Fragmentation mode: HCD
Collision energy: 30
Resolution: 17500
Column name: Acquity BEH C18 1.7um, 2.1x150mm (Waters)
Retention time: 17.935 min
Base peak: 79.0211
Precursor m/z: 313.2162
Precursor type: [M+H]+
Precursor intensity: 3832577.5625
m/z	relative intensity	assigned
55.0179	3	C3H3O+
55.0543	11	C4H7+
57.0335	20	C3H5O+
65.0385	3	C5H5+
67.0542	35	C5H7+
69.0698	14	C5H9+
79.0543	37	C6H7+
81.0335	6	C5H5O+
81.0699	58	C6H9+
83.0492	110	C5H7O+
85.0648	4	C5H9O+
91.0543	42	C7H7+
93.07	72	C7H9+
95.0492	12	C6H7O+
95.0856	79	C7H11+
97.0648	21	C6H9O+
97.1011	5	C7H13+
105.07	55	C8H9+
107.0492	75	C7H7O+
107.0856	69	C8H11+
109.0649	293	C7H9O+
109.1013	52	C8H13+
111.0804	9	C7H11O+
115.0542	3	C9H7+
117.07	47	C9H9+
119.0856	90	C9H11+
121.0648	27	C8H9O+
121.1013	49	C9H13+
123.0805	91	C8H11O+
123.1169	30	C9H15+
125.0961	42	C8H13O+
129.0699	40	C10H9+
131.0856	111	C10H11+
133.0649	28	C9H9O+
133.1012	149	C10H13+
135.0805	95	C9H11O+
135.1169	43	C10H15+
137.0962	21	C9H13O+
137.1326	14	C10H17+
141.0698	17	C11H9+
143.0856	60	C11H11+
145.1013	113	C11H13+
147.0803	28	C10H11O+
147.1169	62	C11H15+
149.0962	95	C10H13O+
149.1325	16	C11H17+
151.1121	15	C10H15O+
155.0856	24	C12H11+
157.0652	11	C11H9O+
157.1013	87	C12H13+
159.0806	35	C11H11O+
159.1169	138	C12H15+
161.0961	58	C11H13O+
161.1325	32	C12H17+
162.1038	2	C11H14O+
163.1118	58	C11H15O+
163.1481	7	C12H19+
167.0857	15	C13H11+
168.0939	4	C13H12+
169.1012	47	C13H13+
170.1099	2	C13H14+
171.0805	8	C12H11O+
171.117	84	C13H15+
173.0962	20	C12H13O+
173.1326	59	C13H17+
175.112	53	C12H15O+
175.1481	24	C13H19+
177.1276	16	C12H17O+
179.0858	9	C14H11+
181.1011	33	C14H13+
183.1171	77	C14H15+
185.0962	42	C13H13O+
185.1327	139	C14H17+
186.1407	3	C14H18+
187.1119	38	C13H15O+
187.1483	78	C14H19+
188.1195	4	C13H16O+
189.1275	36	C13H17O+
191.143	12	C13H19O+
193.1015	14	C15H13+
195.117	41	C15H15+
197.0962	11	C14H13O+
197.1327	53	C15H17+
199.112	19	C14H15O+
199.1483	71	C15H19+
200.1574	3	C15H20+
201.1275	38	C14H17O+
201.1637	10	C15H21+
203.1433	26	C14H19O+
207.1171	35	C16H15+
208.1248	5	C16H16+
209.1327	26	C16H17+
211.1118	10	C15H15O+
211.1483	29	C16H19+
213.1275	21	C15H17O+
213.1634	19	C16H21+
215.143	16	C15H19O+
215.1793	9	C16H23+
217.1589	9	C15H21O+
219.1167	4	C17H15+
220.1247	6	C17H16+
221.1325	42	C17H17+
222.1405	3	C17H18+
223.148	23	C17H19+
225.1276	22	C16H17O+
225.1638	55	C17H21+
227.1435	10	C16H19O+
227.1795	105	C17H23+
229.159	8	C16H21O+
233.1324	4	C18H17+
235.1482	47	C18H19+
237.1639	74	C18H21+
239.1431	21	C17H19O+
239.1796	17	C18H23+
241.1589	14	C17H21O+
243.1746	22	C17H23O+
245.1901	469	C17H25O+
247.1477	4	C19H19+
248.1566	17	C19H20+
249.164	29	C19H21+
251.1796	21	C19H23+
253.1586	19	C18H21O+
253.1952	21	C19H25+
255.1748	15	C18H23O+
266.1671	21	C19H22O+
267.1748	33	C19H23O+
267.2108	15	C20H27+
269.1908	8	C19H25O+
277.1952	84	C21H25+
284.1773	4	C19H24O2+
295.2057	197	C21H27O+
313.2164	999	C21H29O2+
