Mass spectrum: Dinoseb; LC-ESI-QFT; MS2; CE: 45; R=17500; [M-H]-
Name: Dinoseb
Name: 2-butan-2-yl-4,6-dinitrophenol
Formula: C10H12N2O5
Exact mass: 240.0746
SMILES: CCC(C)C1=CC(=CC(=C1O)[N+]([O-])=O)[N+]([O-])=O
InChI: InChI=1S/C10H12N2O5/c1-3-6(2)8-4-7(11(14)15)5-9(10(8)13)12(16)17/h4-6,13H,3H2,1-2H3
Instrument: Q Exactive Orbitrap (Thermo Scientific)
Instrument type: LC-ESI-QFT
Ms type: MS2
Ion mode: NEGATIVE
Ionization: ESI
Fragmentation mode: HCD
Collision energy: 45
Resolution: 17500
Column name: Acquity BEH C18 1.7um, 2.1x150mm (Waters)
Retention time: 18.834 min
Base peak: 239.0673
Precursor m/z: 239.0673
Precursor type: [M-H]-
Precursor intensity: 83418733.62695
m/z	relative intensity	assigned
64.0192	6	C4H2N-
65.0145	5	C3HN2-
65.9985	8	C3NO-
67.019	2	C4H3O-
68.0142	1	C3H2NO-
77.0397	3	C6H5-
79.0554	4	C6H7-
80.0505	1	C5H6N-
81.0346	1	C5H5O-
94.0298	2	C5H4NO-
95.0138	2	C5H3O2-
105.0709	4	C8H9-
107.0502	1	C7H7O-
107.0866	8	C8H11-
108.0456	1	C6H6NO-
109.0169	1	C5H3NO2-
109.0297	1	C6H5O2-
121.0295	2	C7H5O2-
121.0407	2	C6H5N2O-
122.0248	2	C6H4NO2-
122.0373	4	C7H6O2-
123.0327	1	C6H5NO2-
123.0453	2	C7H7O2-
130.0662	2	C9H8N-
132.0329	9	C7H4N2O-
132.0454	4	C8H6NO-
134.0245	4	C7H4NO2-
135.0811	1	C9H11O-
136.0403	17	C7H6NO2-
137.0118	1	C6H3NO3-
137.0247	1	C7H5O3-
138.0198	1	C6H4NO3-
145.0663	1	C10H9O-
146.0486	2	C8H6N2O-
146.0613	1	C9H8NO-
147.0449	1	C9H7O2-
148.0768	1	C9H10NO-
149.0355	5	C7H5N2O2-
149.0607	3	C9H9O2-
150.032	3	C8H6O3-
150.0558	2	C8H8NO2-
151.0764	55	C9H11O2-
152.0354	6	C7H6NO3-
160.0403	2	C9H6NO2-
162.0196	3	C8H4NO3-
162.0556	1	C9H8NO2-
162.0687	2	C10H10O2-
163.0277	7	C8H5NO3-
164.0355	12	C8H6NO3-
164.0478	10	C9H8O3-
165.0556	2	C9H9O3-
166.0145	1	C7H4NO4-
172.0403	1	C10H6NO2-
174.0559	7	C10H8NO2-
175.0635	1	C10H9NO2-
176.0353	75	C9H6NO3-
177.0432	15	C9H7NO3-
177.0558	3	C10H9O3-
178.0509	32	C9H8NO3-
179.0714	72	C10H11O3-
180.0302	53	C8H6NO4-
181.0379	2	C8H7NO4-
190.0511	9	C10H8NO3-
191.0587	6	C10H9NO3-
192.0667	216	C10H10NO3-
193.0254	632	C8H5N2O4-
194.0458	882	C9H8NO4-
203.0462	2	C10H7N2O3-
204.0538	3	C10H8N2O3-
205.0617	3	C10H9N2O3-
206.0329	1	C9H6N2O4-
207.0411	103	C9H7N2O4-
208.0614	38	C10H10NO4-
209.0203	49	C8H5N2O5-
209.0693	58	C10H11NO4-
210.0282	61	C8H6N2O5-
221.0568	60	C10H9N2O4-
222.0646	165	C10H10N2O4-
224.044	8	C9H8N2O5-
239.0673	999	C10H11N2O5-
