Mass spectrum: 4-Dimethylaminobenzaldehyde; LC-ESI-QFT; MS2; CE: 75; R=17500; [M+H]+
Name: 4-Dimethylaminobenzaldehyde
Name: 4-(dimethylamino)benzaldehyde
Formula: C9H11NO
Exact mass: 149.0841
SMILES: CN(C)C1=CC=C(C=O)C=C1
InChI: InChI=1S/C9H11NO/c1-10(2)9-5-3-8(7-11)4-6-9/h3-7H,1-2H3
Instrument: Q Exactive Orbitrap (Thermo Scientific)
Instrument type: LC-ESI-QFT
Ms type: MS2
Ion mode: POSITIVE
Ionization: ESI
Fragmentation mode: HCD
Collision energy: 75
Resolution: 17500
Column name: Acquity BEH C18 1.7um, 2.1x150mm (Waters)
Retention time: 14.863 min
Base peak: 79.0211
Precursor m/z: 150.0913
Precursor type: [M+H]+
Precursor intensity: 8990828.625
m/z	relative intensity	assigned
51.023	1	C4H3+
53.0386	7	C4H5+
65.0385	4	C5H5+
66.0464	10	C5H6+
67.0541	1	C5H7+
77.0382	6	C6H5+
78.0463	3	C6H6+
79.0542	81	C6H7+
80.0494	9	C5H6N+
81.0573	3	C5H7N+
81.0699	7	C6H9+
91.0542	12	C7H7+
92.0495	6	C6H6N+
93.0572	3	C6H7N+
93.07	9	C7H9+
94.0651	7	C6H8N+
95.0492	26	C6H7O+
95.0854	2	C7H11+
103.0543	12	C8H7+
104.0496	2	C7H6N+
105.0573	12	C7H7N+
105.0698	2	C8H9+
106.0652	276	C7H8N+
107.0729	923	C7H9N+
108.0443	4	C6H6NO+
109.0522	1	C6H7NO+
110.0601	2	C6H8NO+
118.0651	15	C8H8N+
119.0732	2	C8H9N+
120.0808	999	C8H10N+
121.0886	350	C8H11N+
122.0963	367	C8H12N+
134.06	11	C8H8NO+
135.0678	6	C8H9NO+
150.0914	111	C9H12NO+
