Mass spectrum: Diisopropyl phthalate; LC-ESI-QFT; MS2; CE: 90; R=17500; [M-H]-
Name: Diisopropyl phthalate
Name: dipropan-2-yl benzene-1,2-dicarboxylate
Formula: C14H18O4
Exact mass: 250.1205
SMILES: CC(C)OC(=O)C1=CC=CC=C1C(=O)OC(C)C
InChI: InChI=1S/C14H18O4/c1-9(2)17-13(15)11-7-5-6-8-12(11)14(16)18-10(3)4/h5-10H,1-4H3
Instrument: Q Exactive Orbitrap (Thermo Scientific)
Instrument type: LC-ESI-QFT
Ms type: MS2
Ion mode: NEGATIVE
Ionization: ESI
Fragmentation mode: HCD
Collision energy: 90
Resolution: 17500
Column name: Acquity BEH C18 1.7um, 2.1x150mm (Waters)
Retention time: 16.952 min
Base peak: 112.9857
Precursor m/z: 249.1132
Precursor type: [M-H]-
Precursor intensity: 4016450.692871
m/z	relative intensity	assigned
59.0139	999	C2H3O2-
97.0659	295	C6H9O-
106.0424	77	C7H6O-
119.0504	143	C8H7O-
149.097	338	C10H13O-
