Mass spectrum: Prometon; LC-ESI-QFT; MS2; CE: 60; R=17500; [M+H]+
Name: Prometon
Name: 6-methoxy-2-N,4-N-di(propan-2-yl)-1,3,5-triazine-2,4-diamine
Formula: C10H19N5O
Exact mass: 225.1590
SMILES: COC1=NC(NC(C)C)=NC(NC(C)C)=N1
InChI: InChI=1S/C10H19N5O/c1-6(2)11-8-13-9(12-7(3)4)15-10(14-8)16-5/h6-7H,1-5H3,(H2,11,12,13,14,15)
Instrument: Q Exactive Orbitrap (Thermo Scientific)
Instrument type: LC-ESI-QFT
Ms type: MS2
Ion mode: POSITIVE
Ionization: ESI
Fragmentation mode: HCD
Collision energy: 60
Resolution: 17500
Column name: Acquity BEH C18 1.7um, 2.1x150mm (Waters)
Retention time: 14.656 min
Base peak: 79.0211
Precursor m/z: 226.1662
Precursor type: [M+H]+
Precursor intensity: 112960964.1875
m/z	relative intensity	assigned
53.0022	2	C3HO+
53.9976	1	C2NO+
57.0448	143	C2H5N2+
57.0699	21	C4H9+
58.0287	11	C2H4NO+
61.0397	1	CH5N2O+
68.0243	111	C2H2N3+
69.0083	50	C2HN2O+
71.0604	51	C3H7N2+
74.0712	1	C2H8N3+
75.0553	135	C2H7N2O+
82.04	22	C3H4N3+
83.024	16	C3H3N2O+
85.051	9	C2H5N4+
85.0761	65	C4H9N2+
86.0349	380	C2H4N3O+
96.0557	91	C4H6N3+
97.0397	69	C4H5N2O+
99.0666	39	C3H7N4+
100.0506	347	C3H6N3O+
110.0462	8	C3H4N5+
110.0713	28	C5H8N3+
113.0822	3	C4H9N4+
114.0662	119	C4H8N3O+
125.0459	2	C4H5N4O+
127.0978	3	C5H11N4+
128.0819	59	C5H10N3O+
138.0776	13	C5H8N5+
142.0724	999	C4H8N5O+
152.0932	2	C6H10N5+
152.1182	6	C8H14N3+
153.0772	3	C6H9N4O+
168.088	4	C6H10N5O+
170.1036	391	C6H12N5O+
184.1194	264	C7H14N5O+
226.1663	59	C10H20N5O+
