Mass spectrum: Propham; LC-ESI-QFT; MS2; CE: 45; R=17500; [M+H]+
Name: Propham
Name: propan-2-yl N-phenylcarbamate
Formula: C10H13NO2
Exact mass: 179.0946
SMILES: CC(C)OC(=O)NC1=CC=CC=C1
InChI: InChI=1S/C10H13NO2/c1-8(2)13-10(12)11-9-6-4-3-5-7-9/h3-8H,1-2H3,(H,11,12)
Instrument: Q Exactive Orbitrap (Thermo Scientific)
Instrument type: LC-ESI-QFT
Ms type: MS2
Ion mode: POSITIVE
Ionization: ESI
Fragmentation mode: HCD
Collision energy: 45
Resolution: 17500
Column name: Acquity BEH C18 1.7um, 2.1x150mm (Waters)
Retention time: 14.216 min
Base peak: 79.0212
Precursor m/z: 180.1019
Precursor type: [M+H]+
Precursor intensity: 16730511.75
m/z	relative intensity	assigned
65.0385	8	C5H5+
67.0542	1	C5H7+
82.0651	6	C5H8N+
92.0495	17	C6H6N+
93.0335	9	C6H5O+
93.0573	18	C6H7N+
94.0652	8	C6H8N+
108.0444	2	C6H6NO+
109.0523	21	C6H7NO+
110.0601	999	C6H8NO+
111.044	38	C6H7O2+
125.0599	1	C7H9O2+
134.0601	16	C8H8NO+
135.0684	1	C8H9NO+
135.0804	2	C9H11O+
137.0836	5	C8H11NO+
138.0914	889	C8H12NO+
139.0753	7	C8H11O2+
152.0706	132	C8H10NO2+
162.0914	47	C10H12NO+
180.1019	649	C10H14NO2+
