Mass spectrum: Chrysin; LC-ESI-QFT; MS2; CE: 45; R=17500; [M+H]+
Name: Chrysin
Name: 5,7-dihydroxy-2-phenylchromen-4-one
Formula: C15H10O4
Exact mass: 254.0579
SMILES: OC1=CC2=C(C(O)=C1)C(=O)C=C(O2)C1=CC=CC=C1
InChI: InChI=1S/C15H10O4/c16-10-6-11(17)15-12(18)8-13(19-14(15)7-10)9-4-2-1-3-5-9/h1-8,16-17H
Instrument: Q Exactive Orbitrap (Thermo Scientific)
Instrument type: LC-ESI-QFT
Ms type: MS2
Ion mode: POSITIVE
Ionization: ESI
Fragmentation mode: HCD
Collision energy: 45
Resolution: 17500
Column name: Acquity BEH C18 1.7um, 2.1x150mm (Waters)
Retention time: 15.105 min
Base peak: 79.0211
Precursor m/z: 255.0652
Precursor type: [M+H]+
Precursor intensity: 8191846.5
m/z	relative intensity	assigned
55.0179	2	C3H3O+
68.997	2	C3HO2+
91.0542	8	C7H7+
108.0556	10	C7H8O+
110.0712	4	C7H10O+
111.044	1	C6H7O2+
119.0491	10	C8H7O+
121.0285	3	C7H5O2+
121.0507	1	C4H9O4+
128.0622	1	C10H8+
129.0699	7	C10H9+
131.0493	2	C9H7O+
131.0855	1	C10H11+
133.0284	10	C8H5O2+
137.0233	117	C7H5O3+
141.0698	2	C11H9+
143.0854	3	C11H11+
145.0284	23	C9H5O2+
147.0247	1	C12H3+
149.0233	8	C8H5O3+
153.0698	9	C12H9+
155.0856	1	C12H11+
157.0648	17	C11H9O+
165.0699	3	C13H9+
167.0339	1	C8H7O4+
169.0647	1	C12H9O+
171.0804	13	C12H11O+
181.0647	25	C13H9O+
182.0725	1	C13H10O+
184.0519	2	C12H8O2+
185.0596	5	C12H9O2+
187.0559	8	C15H7+
187.0754	1	C12H11O2+
197.0597	1	C13H9O2+
198.0679	1	C13H10O2+
199.0753	194	C13H11O2+
209.0596	7	C14H9O2+
210.067	2	C14H10O2+
211.0751	5	C14H11O2+
213.0545	1	C13H9O3+
227.0702	91	C14H11O3+
237.0546	34	C15H9O3+
255.0651	999	C15H11O4+
