Mass spectrum: Propazine; LC-ESI-QFT; MS2; CE: 30; R=17500; [M+H]+
Name: Propazine
Name: 6-chloro-2-N,4-N-di(propan-2-yl)-1,3,5-triazine-2,4-diamine
Formula: C9H16ClN5
Exact mass: 229.1094
SMILES: CC(C)NC1=NC(NC(C)C)=NC(Cl)=N1
InChI: InChI=1S/C9H16ClN5/c1-5(2)11-8-13-7(10)14-9(15-8)12-6(3)4/h5-6H,1-4H3,(H2,11,12,13,14,15)
Instrument: Q Exactive Orbitrap (Thermo Scientific)
Instrument type: LC-ESI-QFT
Ms type: MS2
Ion mode: POSITIVE
Ionization: ESI
Fragmentation mode: HCD
Collision energy: 30
Resolution: 17500
Column name: Acquity BEH C18 1.7um, 2.1x150mm (Waters)
Retention time: 17.266 min
Base peak: 79.0211
Precursor m/z: 230.1167
Precursor type: [M+H]+
Precursor intensity: 27730545.875
m/z	relative intensity	assigned
68.0242	2	C2H2N3+
79.0056	2	CH4ClN2+
104.0009	7	C2H3ClN3+
110.0462	1	C3H4N5+
110.0713	4	C5H8N3+
146.0228	107	C3H5ClN5+
146.0478	8	C5H9ClN3+
152.0931	1	C6H10N5+
152.1182	7	C8H14N3+
188.0698	503	C6H11ClN5+
215.0934	1	C8H14ClN5+
230.1167	999	C9H17ClN5+
