Mass spectrum: o-Toluenesulfonamide; LC-ESI-QFT; MS2; CE: 45; R=17500; [M-H]-
Name: o-Toluenesulfonamide
Name: 2-methylbenzenesulfonamide
Formula: C7H9NO2S
Exact mass: 171.0354
SMILES: CC1=C(C=CC=C1)S(N)(=O)=O
InChI: InChI=1S/C7H9NO2S/c1-6-4-2-3-5-7(6)11(8,9)10/h2-5H,1H3,(H2,8,9,10)
Instrument: Q Exactive Orbitrap (Thermo Scientific)
Instrument type: LC-ESI-QFT
Ms type: MS2
Ion mode: NEGATIVE
Ionization: ESI
Fragmentation mode: HCD
Collision energy: 45
Resolution: 17500
Column name: Acquity BEH C18 1.7um, 2.1x150mm (Waters)
Retention time: 16.168 min
Base peak: 310.1232
Precursor m/z: 170.0281
Precursor type: [M-H]-
Precursor intensity: 305435.1577148
m/z	relative intensity	assigned
61.9705	31	NOS-
63.9624	19	O2S-
77.9655	23	NO2S-
78.9733	103	HNO2S-
79.9811	252	H2NO2S-
106.0662	999	C7H8N-
107.0504	22	C7H7O-
122.0611	15	C7H8NO-
170.0281	642	C7H8NO2S-
