Mass spectrum: meso-Hexestrol; LC-ESI-QFT; MS2; CE: 45; R=17500; [M+H]+
Name: meso-Hexestrol
Name: 4-[(3S,4R)-4-(4-hydroxyphenyl)hexan-3-yl]phenol
Formula: C18H22O2
Exact mass: 270.1620
SMILES: CC[C@@H]([C@@H](CC)C1=CC=C(O)C=C1)C1=CC=C(O)C=C1
InChI: InChI=1S/C18H22O2/c1-3-17(13-5-9-15(19)10-6-13)18(4-2)14-7-11-16(20)12-8-14/h5-12,17-20H,3-4H2,1-2H3/t17-,18+
Instrument: Q Exactive Orbitrap (Thermo Scientific)
Instrument type: LC-ESI-QFT
Ms type: MS2
Ion mode: POSITIVE
Ionization: ESI
Fragmentation mode: HCD
Collision energy: 45
Resolution: 17500
Column name: Acquity BEH C18 1.7um, 2.1x150mm (Waters)
Retention time: 16.990 min
Base peak: 79.0211
Precursor m/z: 271.1693
Precursor type: [M+H]+
Precursor intensity: 8488923.875
m/z	relative intensity	assigned
55.0179	4	C3H3O+
55.0543	11	C4H7+
57.0336	5	C3H5O+
57.0698	2	C4H9+
67.0543	16	C5H7+
69.0698	9	C5H9+
71.0491	5	C4H7O+
79.0543	16	C6H7+
81.0699	25	C6H9+
83.0492	91	C5H7O+
85.0649	6	C5H9O+
91.0543	18	C7H7+
93.0699	25	C7H9+
95.0128	431	C5H3O2+
97.0648	5	C6H9O+
97.1013	1	C7H13+
105.0699	34	C8H9+
107.0492	63	C7H7O+
107.0856	36	C8H11+
109.0648	15	C7H9O+
109.1013	10	C8H13+
111.0805	4	C7H11O+
115.0544	2	C9H7+
117.07	13	C9H9+
119.0856	18	C9H11+
121.0648	34	C8H9O+
121.1012	4	C9H13+
123.0807	7	C8H11O+
125.0959	3	C8H13O+
128.0618	2	C10H8+
129.0699	21	C10H9+
131.0492	4	C9H7O+
131.0856	31	C10H11+
133.0648	79	C9H9O+
133.1012	26	C10H13+
135.0805	21	C9H11O+
141.0699	21	C11H9+
143.0856	37	C11H11+
144.057	3	C10H8O+
145.0648	19	C10H9O+
145.1012	52	C11H13+
146.0721	1	C10H10O+
146.1091	3	C11H14+
147.0805	30	C10H11O+
147.1168	4	C11H15+
148.0883	14	C10H12O+
149.0964	9	C10H13O+
153.0701	3	C12H9+
154.0777	2	C12H10+
155.0856	29	C12H11+
157.0649	59	C11H9O+
157.1013	18	C12H13+
158.0726	4	C11H10O+
159.0806	108	C11H11O+
159.1169	12	C12H15+
161.0961	20	C11H13O+
162.104	2	C11H14O+
163.1116	2	C11H15O+
165.0698	11	C13H9+
166.0778	8	C13H10+
167.0856	24	C13H11+
168.0933	3	C13H12+
169.1013	42	C13H13+
171.0805	24	C12H11O+
171.1169	37	C13H15+
173.0963	21	C12H13O+
175.1117	2	C12H15O+
178.0777	5	C14H10+
179.0856	47	C14H11+
180.0934	6	C14H12+
181.1012	29	C14H13+
182.0725	1	C13H10O+
182.1088	3	C14H14+
183.0805	26	C13H11O+
183.117	42	C14H15+
184.0884	19	C13H12O+
185.0962	42	C13H13O+
185.1323	6	C14H17+
186.104	11	C13H14O+
187.1118	31	C13H15O+
189.1274	17	C13H17O+
192.0933	5	C15H12+
193.1014	38	C15H13+
194.109	6	C15H14+
195.117	43	C15H15+
196.0884	5	C14H12O+
196.1244	3	C15H16+
197.0962	104	C14H13O+
197.1326	18	C15H17+
198.104	50	C14H14O+
199.1118	391	C14H15O+
200.1196	29	C14H16O+
201.1273	3	C14H17O+
205.1016	8	C16H13+
206.1088	6	C16H14+
207.1169	26	C16H15+
209.096	2	C15H13O+
209.1326	39	C16H17+
210.104	9	C15H14O+
210.1414	2	C16H18+
211.1119	94	C15H15O+
211.1483	28	C16H19+
212.1197	33	C15H16O+
213.1274	20	C15H17O+
214.1353	74	C15H18O+
215.1434	14	C15H19O+
218.1092	1	C17H14+
220.1248	18	C17H16+
223.1115	3	C16H15O+
223.1481	7	C17H19+
224.1196	23	C16H16O+
224.1563	2	C17H20+
225.1276	75	C16H17O+
225.1637	16	C17H21+
227.1432	177	C16H19O+
228.1512	10	C16H20O+
229.1581	3	C16H21O+
233.1328	4	C18H17+
235.1482	63	C18H19+
237.1267	2	C17H17O+
238.1353	47	C17H18O+
242.1296	9	C16H18O2+
243.1745	11	C17H23O+
251.1434	4	C18H19O+
253.1588	493	C18H21O+
271.1693	999	C18H23O2+
