Mass spectrum: N-(2,4-Dimethylphenyl)formamide; LC-ESI-QFT; MS2; CE: 60; R=17500; [M+H]+
Name: N-(2,4-Dimethylphenyl)formamide
Formula: C9H11NO
Exact mass: 149.0841
SMILES: CC1=CC=C(NC=O)C(C)=C1
InChI: InChI=1S/C9H11NO/c1-7-3-4-9(10-6-11)8(2)5-7/h3-6H,1-2H3,(H,10,11)
Instrument: Q Exactive Orbitrap (Thermo Scientific)
Instrument type: LC-ESI-QFT
Ms type: MS2
Ion mode: POSITIVE
Ionization: ESI
Fragmentation mode: HCD
Collision energy: 60
Resolution: 17500
Column name: Acquity BEH C18 1.7um, 2.1x150mm (Waters)
Retention time: 14.859 min
Base peak: 79.0212
Precursor m/z: 150.0913
Precursor type: [M+H]+
Precursor intensity: 11617789.875
m/z	relative intensity	assigned
53.0387	1	C4H5+
56.0495	1	C3H6N+
65.0385	2	C5H5+
66.0464	2	C5H6+
67.0542	1	C5H7+
77.0381	4	C6H5+
78.0463	1	C6H6+
79.0542	61	C6H7+
80.0495	5	C5H6N+
81.0573	2	C5H7N+
81.07	9	C6H9+
91.0542	6	C7H7+
92.0495	5	C6H6N+
93.0574	1	C6H7N+
93.0699	11	C7H9+
94.0651	2	C6H8N+
95.0491	5	C6H7O+
95.0855	3	C7H11+
103.0541	4	C8H7+
105.0336	1	C7H5O+
105.0573	4	C7H7N+
105.07	7	C8H9+
106.0652	93	C7H8N+
107.073	999	C7H9N+
108.0443	12	C6H6NO+
109.0519	1	C6H7NO+
110.0602	1	C6H8NO+
117.0573	2	C8H7N+
118.0651	4	C8H8N+
120.0808	794	C8H10N+
121.0886	346	C8H11N+
122.0964	947	C8H12N+
123.0803	3	C8H11O+
132.0809	2	C9H10N+
134.0601	6	C8H8NO+
135.0678	12	C8H9NO+
150.0913	583	C9H12NO+
