Mass spectrum: Flavone; LC-ESI-QFT; MS2; CE: 75; R=17500; [M+H]+
Name: Flavone
Name: 2-phenylchromen-4-one
Formula: C15H10O2
Exact mass: 222.0681
SMILES: O=C1C=C(OC2=CC=CC=C12)C1=CC=CC=C1
InChI: InChI=1S/C15H10O2/c16-13-10-15(11-6-2-1-3-7-11)17-14-9-5-4-8-12(13)14/h1-10H
Instrument: Q Exactive Orbitrap (Thermo Scientific)
Instrument type: LC-ESI-QFT
Ms type: MS2
Ion mode: POSITIVE
Ionization: ESI
Fragmentation mode: HCD
Collision energy: 75
Resolution: 17500
Column name: Acquity BEH C18 1.7um, 2.1x150mm (Waters)
Retention time: 17.855 min
Base peak: 79.0211
Precursor m/z: 223.0754
Precursor type: [M+H]+
Precursor intensity: 29430432
m/z	relative intensity	assigned
50.0151	2	C4H2+
51.023	5	C4H3+
53.0386	219	C4H5+
55.0178	13	C3H3O+
65.0386	360	C5H5+
67.0541	1	C5H7+
68.9971	85	C3HO2+
75.0228	2	C6H3+
77.0385	116	C6H5+
79.0542	3	C6H7+
80.0254	1	C5H4O+
81.0335	22	C5H5O+
81.0698	2	C6H9+
89.0385	3	C7H5+
93.0336	261	C6H5O+
94.0414	25	C6H6O+
95.0492	852	C6H7O+
98.0363	2	C5H6O2+
101.0387	2	C8H5+
102.0464	9	C8H6+
103.0542	682	C8H7+
105.0336	108	C7H5O+
109.0648	17	C7H9O+
111.0441	164	C6H7O2+
115.0544	2	C9H7+
118.0413	3	C8H6O+
121.0284	733	C7H5O2+
125.0598	16	C7H9O2+
128.0621	2	C10H8+
129.0335	547	C9H5O+
141.0698	4	C11H9+
147.0439	8	C9H7O2+
151.0542	1	C12H7+
152.0621	191	C12H8+
153.0699	21	C12H9+
155.0852	3	C12H11+
165.0699	142	C13H9+
166.0778	54	C13H10+
167.0856	188	C13H11+
169.0648	14	C12H9O+
176.0621	35	C14H8+
177.07	49	C14H9+
178.0777	344	C14H10+
179.0856	12	C14H11+
181.0649	13	C13H9O+
194.0726	5	C14H10O+
195.0806	12	C14H11O+
205.0648	3	C15H9O+
223.0754	999	C15H11O2+
