Mass spectrum: Chrysin; LC-ESI-QFT; MS2; CE: 75; R=17500; [M+H]+
Name: Chrysin
Name: 5,7-dihydroxy-2-phenylchromen-4-one
Formula: C15H10O4
Exact mass: 254.0579
SMILES: OC1=CC2=C(C(O)=C1)C(=O)C=C(O2)C1=CC=CC=C1
InChI: InChI=1S/C15H10O4/c16-10-6-11(17)15-12(18)8-13(19-14(15)7-10)9-4-2-1-3-5-9/h1-8,16-17H
Instrument: Q Exactive Orbitrap (Thermo Scientific)
Instrument type: LC-ESI-QFT
Ms type: MS2
Ion mode: POSITIVE
Ionization: ESI
Fragmentation mode: HCD
Collision energy: 75
Resolution: 17500
Column name: Acquity BEH C18 1.7um, 2.1x150mm (Waters)
Retention time: 15.105 min
Base peak: 79.0211
Precursor m/z: 255.0652
Precursor type: [M+H]+
Precursor intensity: 9820171.0625
m/z	relative intensity	assigned
53.0022	6	C3HO+
53.0386	19	C4H5+
55.0178	112	C3H3O+
63.0229	3	C5H3+
65.0385	241	C5H5+
68.997	98	C3HO2+
71.0127	4	C3H3O2+
77.0385	5	C6H5+
78.0464	16	C6H6+
79.0178	2	C5H3O+
79.0542	3	C6H7+
81.0335	163	C5H5O+
82.0413	11	C5H6O+
89.0385	36	C7H5+
90.0464	3	C7H6+
91.0542	999	C7H7+
92.0257	5	C6H4O+
93.0335	5	C6H5O+
94.0413	5	C6H6O+
95.0127	3	C5H3O2+
95.0491	20	C6H7O+
96.0206	10	C5H4O2+
103.0543	16	C8H7+
105.0335	67	C7H5O+
106.0412	13	C7H6O+
107.0492	10	C7H7O+
108.0556	157	C7H8O+
109.0284	14	C6H5O2+
110.0363	3	C6H6O2+
110.0713	10	C7H10O+
111.044	20	C6H7O2+
115.0541	55	C9H7+
116.0621	3	C9H8+
117.0334	4	C8H5O+
117.07	3	C9H9+
118.0412	23	C8H6O+
119.0491	164	C8H7O+
120.0554	4	C8H8O+
121.0284	84	C7H5O2+
127.0388	14	C6H7O3+
127.0543	8	C10H7+
128.062	289	C10H8+
129.0698	153	C10H9+
131.049	92	C9H7O+
131.0854	18	C10H11+
133.0284	39	C8H5O2+
134.0361	62	C8H6O2+
135.044	3	C8H7O2+
137.0233	810	C7H5O3+
138.0311	11	C7H6O3+
139.054	5	C11H7+
141.0697	51	C11H9+
142.0778	5	C11H10+
143.049	6	C10H7O+
143.0855	80	C11H11+
144.0572	10	C10H8O+
145.0284	82	C9H5O2+
145.0648	31	C10H9O+
147.044	22	C9H7O2+
149.0233	51	C8H5O3+
152.062	403	C12H8+
153.0698	491	C12H9+
154.0776	10	C12H10+
155.0491	8	C11H7O+
155.0852	4	C12H11+
156.0569	11	C11H8O+
157.0647	130	C11H9O+
159.0437	3	C10H7O2+
159.0805	3	C11H11O+
161.0236	2	C9H5O3+
163.0541	3	C13H7+
165.0698	24	C13H9+
167.034	7	C8H7O4+
167.0496	3	C12H7O+
168.0567	12	C12H8O+
169.0647	76	C12H9O+
170.0727	19	C12H10O+
171.0438	11	C11H7O2+
171.0803	132	C12H11O+
175.0387	4	C10H7O3+
180.0576	3	C13H8O+
181.0647	722	C13H9O+
182.0725	56	C13H10O+
184.0518	111	C12H8O2+
185.0594	20	C12H9O2+
187.039	5	C11H7O3+
187.0554	2	C15H7+
193.0495	11	C10H9O4+
197.0597	98	C13H9O2+
198.0675	67	C13H10O2+
199.0753	481	C13H11O2+
200.0462	2	C12H8O3+
208.0513	4	C14H8O2+
209.0596	58	C14H9O2+
210.0673	24	C14H10O2+
211.0753	11	C14H11O2+
212.0466	18	C13H8O3+
213.055	7	C13H9O3+
219.0442	4	C15H7O2+
225.0544	11	C14H9O3+
226.0622	24	C14H10O3+
227.0702	133	C14H11O3+
237.0544	91	C15H9O3+
255.065	80	C15H11O4+
