Mass spectrum: 3-Ethoxy-4-hydroxybenzaldehyde; LC-ESI-QFT; MS2; CE: 45; R=17500; [M-H]-
Name: 3-Ethoxy-4-hydroxybenzaldehyde
Name: Ethyl vanillin
Formula: C9H10O3
Exact mass: 166.0630
SMILES: CCOC1=C(O)C=CC(C=O)=C1
InChI: InChI=1S/C9H10O3/c1-2-12-9-5-7(6-10)3-4-8(9)11/h3-6,11H,2H2,1H3
Instrument: Q Exactive Orbitrap (Thermo Scientific)
Instrument type: LC-ESI-QFT
Ms type: MS2
Ion mode: NEGATIVE
Ionization: ESI
Fragmentation mode: HCD
Collision energy: 45
Resolution: 17500
Column name: Acquity BEH C18 1.7um, 2.1x150mm (Waters)
Retention time: 15.443 min
Base peak: 165.0556
Precursor m/z: 165.0557
Precursor type: [M-H]-
Precursor intensity: 26610922.30811
m/z	relative intensity	assigned
68.9982	3	C3HO2-
69.0346	2	C4H5O-
70.0061	3	C3H2O2-
71.0138	1	C3H3O2-
72.9932	1	C2HO3-
79.0191	1	C5H3O-
82.006	15	C4H2O2-
91.0189	15	C6H3O-
92.0268	135	C6H4O-
93.0346	999	C6H5O-
95.0138	149	C5H3O2-
106.0061	5	C6H2O2-
107.014	1	C6H3O2-
107.0503	2	C7H7O-
108.0217	137	C6H4O2-
119.0137	13	C7H3O2-
121.0296	9	C7H5O2-
123.0087	19	C6H3O3-
136.0166	499	C7H4O3-
137.0244	833	C7H5O3-
165.0557	426	C9H9O3-
