Mass spectrum: Cyprodinil; LC-ESI-QFT; MS2; CE: 60; R=17500; [M+H]+
Name: Cyprodinil
Name: 4-cyclopropyl-6-methyl-N-phenylpyrimidin-2-amine
Formula: C14H15N3
Exact mass: 225.1266
SMILES: CC1=NC(NC2=CC=CC=C2)=NC(=C1)C1CC1
InChI: InChI=1S/C14H15N3/c1-10-9-13(11-7-8-11)17-14(15-10)16-12-5-3-2-4-6-12/h2-6,9,11H,7-8H2,1H3,(H,15,16,17)
Instrument: Q Exactive Orbitrap (Thermo Scientific)
Instrument type: LC-ESI-QFT
Ms type: MS2
Ion mode: POSITIVE
Ionization: ESI
Fragmentation mode: HCD
Collision energy: 60
Resolution: 17500
Column name: Acquity BEH C18 1.7um, 2.1x150mm (Waters)
Retention time: 17.696 min
Base peak: 79.0211
Precursor m/z: 226.1339
Precursor type: [M+H]+
Precursor intensity: 59826758.59375
m/z	relative intensity	assigned
53.0386	4	C4H5+
56.0495	3	C3H6N+
58.0652	6	C3H8N+
65.0386	21	C5H5+
66.0464	1	C5H6+
67.0291	2	C3H3N2+
67.0416	2	C4H5N+
67.0542	28	C5H7+
68.0243	15	C2H2N3+
68.0494	12	C4H6N+
77.0386	3	C6H5+
79.0542	29	C6H7+
80.0495	24	C5H6N+
81.0699	25	C6H9+
82.0651	17	C5H8N+
83.0604	6	C4H7N2+
84.0809	7	C5H10N+
89.0385	2	C7H5+
91.0543	74	C7H7+
92.0495	52	C6H6N+
92.062	9	C7H8+
93.0574	177	C6H7N+
94.0652	12	C6H8N+
95.0492	8	C4H5N3+
96.0807	1	C6H10N+
104.0495	10	C7H6N+
105.0448	6	C6H5N2+
106.0652	94	C7H8N+
107.0604	3	C6H7N2+
107.073	5	C7H9N+
108.0684	24	C6H8N2+
108.0808	235	C7H10N+
109.0648	1	C5H7N3+
109.0761	19	C6H9N2+
109.0886	6	C7H11N+
115.0543	5	C9H7+
116.0496	18	C8H6N+
117.0447	2	C7H5N2+
117.0573	19	C8H7N+
117.07	2	C9H9+
118.0526	47	C7H6N2+
118.0651	37	C8H8N+
119.0604	85	C7H7N2+
123.0917	18	C7H11N2+
128.0494	1	C9H6N+
130.0651	3	C9H8N+
131.0604	23	C8H7N2+
132.0683	32	C8H8N2+
133.0761	126	C8H9N2+
140.0493	1	C10H6N+
141.07	1	C11H9+
142.0651	11	C10H8N+
143.0605	27	C9H7N2+
143.073	4	C10H9N+
144.0808	75	C10H10N+
145.0761	19	C9H9N2+
148.0868	1	C8H10N3+
150.1028	1	C8H12N3+
154.065	1	C11H8N+
155.0605	1	C10H7N2+
156.0683	1	C10H8N2+
156.0809	2	C11H10N+
157.0763	5	C10H9N2+
158.0839	1	C10H10N2+
158.0964	4	C11H12N+
159.0917	30	C10H11N2+
165.0701	3	C13H9+
166.0652	1	C12H8N+
167.0602	2	C11H7N2+
167.0729	11	C12H9N+
168.0687	5	C11H8N2+
168.0808	19	C12H10N+
169.0636	1	C10H7N3+
169.076	11	C11H9N2+
169.0884	1	C12H11N+
170.0838	3	C11H10N2+
171.0917	5	C11H11N2+
181.0763	5	C12H9N2+
181.0886	1	C13H11N+
182.0841	5	C12H10N2+
182.0965	5	C13H12N+
183.0792	7	C11H9N3+
183.0917	10	C12H11N2+
184.087	41	C11H10N3+
185.1074	35	C12H13N2+
191.0729	1	C14H9N+
192.081	3	C14H10N+
193.076	6	C13H9N2+
193.0882	2	C14H11N+
194.084	27	C13H10N2+
195.0914	2	C13H11N2+
196.0866	2	C12H10N3+
197.0947	8	C12H11N3+
197.107	2	C13H13N2+
198.1028	15	C12H12N3+
199.1115	3	C12H13N3+
199.1221	3	C13H15N2+
200.118	1	C12H14N3+
207.0919	9	C14H11N2+
208.0995	9	C14H12N2+
209.1074	49	C14H13N2+
210.1026	74	C13H12N3+
211.1105	23	C13H13N3+
224.1182	15	C14H14N3+
225.1261	3	C14H15N3+
226.1339	999	C14H16N3+
