Mass spectrum: Dinoseb; LC-ESI-QFT; MS2; CE: 75; R=17500; [M-H]-
Name: Dinoseb
Name: 2-butan-2-yl-4,6-dinitrophenol
Formula: C10H12N2O5
Exact mass: 240.0746
SMILES: CCC(C)C1=CC(=CC(=C1O)[N+]([O-])=O)[N+]([O-])=O
InChI: InChI=1S/C10H12N2O5/c1-3-6(2)8-4-7(11(14)15)5-9(10(8)13)12(16)17/h4-6,13H,3H2,1-2H3
Instrument: Q Exactive Orbitrap (Thermo Scientific)
Instrument type: LC-ESI-QFT
Ms type: MS2
Ion mode: NEGATIVE
Ionization: ESI
Fragmentation mode: HCD
Collision energy: 75
Resolution: 17500
Column name: Acquity BEH C18 1.7um, 2.1x150mm (Waters)
Retention time: 18.846 min
Base peak: 239.0673
Precursor m/z: 239.0673
Precursor type: [M-H]-
Precursor intensity: 89330731.53516
m/z	relative intensity	assigned
55.0189	16	C3H3O-
64.0193	1	C4H2N-
65.0033	1	C4HO-
65.0396	11	C5H5-
65.9984	5	C3NO-
66.035	3	C4H4N-
67.0189	3	C4H3O-
68.9982	3	C3HO2-
77.0397	2	C6H5-
79.0553	4	C6H7-
80.0268	6	C5H4O-
81.0346	4	C5H5O-
81.0711	6	C6H9-
91.0553	68	C7H7-
93.0348	4	C6H5O-
95.0139	3	C5H3O2-
95.0504	7	C6H7O-
107.0502	14	C7H7O-
107.0866	32	C8H11-
108.0217	9	C6H4O2-
108.0455	4	C6H6NO-
109.0169	2	C5H3NO2-
109.0296	5	C6H5O2-
119.0502	3	C8H7O-
121.0295	10	C7H5O2-
122.0374	1	C7H6O2-
123.0089	6	C6H3O3-
123.0326	59	C6H5NO2-
123.0452	5	C7H7O2-
128.0505	1	C9H6N-
131.0503	1	C9H7O-
134.0247	17	C7H4NO2-
135.0452	41	C8H7O2-
135.0816	2	C9H11O-
136.053	59	C8H8O2-
139.0275	6	C6H5NO3-
146.025	2	C8H4NO2-
146.0375	2	C9H6O2-
147.0451	6	C9H7O2-
147.0818	1	C10H11O-
148.0405	25	C8H6NO2-
149.0482	151	C8H7NO2-
150.056	150	C8H8NO2-
151.0276	23	C7H5NO3-
151.0764	171	C9H11O2-
155.0224	3	C6H5NO4-
160.0402	6	C9H6NO2-
162.0197	83	C8H4NO3-
163.0275	2	C8H5NO3-
163.0401	22	C9H7O3-
164.0355	66	C8H6NO3-
164.0472	11	C9H8O3-
164.0717	147	C9H10NO2-
166.0148	6	C7H4NO4-
166.051	12	C8H8NO3-
168.0431	3	C8H8O4-
176.0353	354	C9H6NO3-
177.0431	158	C9H7NO3-
178.051	114	C9H8NO3-
179.0714	35	C10H11O3-
180.0301	2	C8H6NO4-
183.0171	2	C7H5NO5-
192.0301	1	C9H6NO4-
192.0668	16	C10H10NO3-
193.0259	10	C8H5N2O4-
193.0372	8	C9H7NO4-
193.0745	2	C10H11NO3-
194.0459	60	C9H8NO4-
207.0411	999	C9H7N2O4-
208.0615	27	C10H10NO4-
209.0197	1	C8H5N2O5-
209.0692	7	C10H11NO4-
223.0363	8	C9H7N2O5-
224.0435	2	C9H8N2O5-
239.0674	38	C10H11N2O5-
