Mass spectrum: Panthenol; LC-ESI-QFT; MS2; CE: 30; R=17500; [M-H]-
Name: Panthenol
Formula: C9H19NO4
Exact mass: 205.1314
SMILES: CC(C)(CO)C(O)C(=O)NCCCO
InChI: InChI=1S/C9H19NO4/c1-9(2,6-12)7(13)8(14)10-4-3-5-11/h7,11-13H,3-6H2,1-2H3,(H,10,14)
Instrument: Q Exactive Orbitrap (Thermo Scientific)
Instrument type: LC-ESI-QFT
Ms type: MS2
Ion mode: NEGATIVE
Ionization: ESI
Fragmentation mode: HCD
Collision energy: 30
Resolution: 17500
Column name: Acquity BEH C18 1.7um, 2.1x150mm (Waters)
Retention time: 8.129 min
Base peak: 218.1033
Precursor m/z: 204.1241
Precursor type: [M-H]-
Precursor intensity: 5211710.115967
m/z	relative intensity	assigned
55.0189	7	C3H3O-
71.0503	556	C4H7O-
72.0455	86	C3H6NO-
74.0612	239	C3H8NO-
99.0452	147	C5H7O2-
100.0405	17	C4H6NO2-
102.0561	878	C4H8NO2-
108.082	6	C7H10N-
118.0509	7	C4H8NO3-
126.0924	72	C7H12NO-
129.0558	45	C6H9O3-
130.0509	48	C5H8NO3-
146.0823	17	C6H12NO3-
156.103	54	C8H14NO2-
172.0979	15	C8H14NO3-
204.1241	999	C9H18NO4-
