Mass spectrum: Panthenol; LC-ESI-QFT; MS2; CE: 75; R=17500; [M-H]-
Name: Panthenol
Formula: C9H19NO4
Exact mass: 205.1314
SMILES: CC(C)(CO)C(O)C(=O)NCCCO
InChI: InChI=1S/C9H19NO4/c1-9(2,6-12)7(13)8(14)10-4-3-5-11/h7,11-13H,3-6H2,1-2H3,(H,10,14)
Instrument: Q Exactive Orbitrap (Thermo Scientific)
Instrument type: LC-ESI-QFT
Ms type: MS2
Ion mode: NEGATIVE
Ionization: ESI
Fragmentation mode: HCD
Collision energy: 75
Resolution: 17500
Column name: Acquity BEH C18 1.7um, 2.1x150mm (Waters)
Retention time: 8.129 min
Base peak: 218.1033
Precursor m/z: 204.1241
Precursor type: [M-H]-
Precursor intensity: 830946.5991211
m/z	relative intensity	assigned
55.0189	230	C3H3O-
71.0503	924	C4H7O-
72.0456	999	C3H6NO-
74.0612	372	C3H8NO-
99.0453	100	C5H7O2-
102.056	86	C4H8NO2-
108.0823	16	C7H10N-
126.0925	33	C7H12NO-
