Mass spectrum: Acetaminophen; LC-ESI-QFT; MS2; CE: 90; R=17500; [M+H]+
Name: Acetaminophen
Name: N-(4-hydroxyphenyl)acetamide
Formula: C8H9NO2
Exact mass: 151.0633
SMILES: CC(=O)NC1=CC=C(O)C=C1
InChI: InChI=1S/C8H9NO2/c1-6(10)9-7-2-4-8(11)5-3-7/h2-5,11H,1H3,(H,9,10)
Instrument: Q Exactive Orbitrap (Thermo Scientific)
Instrument type: LC-ESI-QFT
Ms type: MS2
Ion mode: POSITIVE
Ionization: ESI
Fragmentation mode: HCD
Collision energy: 90
Resolution: 17500
Column name: Acquity BEH C18 1.7um, 2.1x150mm (Waters)
Retention time: 8.041 min
Base peak: 79.0211
Precursor m/z: 152.0706
Precursor type: [M+H]+
Precursor intensity: 5995179.8125
m/z	relative intensity	assigned
53.0023	4	C3HO+
55.0179	4	C3H3O+
55.0542	7	C4H7+
65.0385	999	C5H5+
67.0416	30	C4H5N+
67.0542	14	C5H7+
68.0494	2	C4H6N+
69.0336	2	C4H5O+
79.0177	2	C5H3O+
80.0494	24	C5H6N+
81.0573	9	C5H7N+
82.0651	118	C5H8N+
83.0491	6	C5H7O+
92.0495	311	C6H6N+
93.0335	173	C6H5O+
93.0573	52	C6H7N+
109.0523	58	C6H7NO+
110.06	825	C6H8NO+
111.044	512	C6H7O2+
125.0596	5	C7H9O2+
134.0602	6	C8H8NO+
152.0707	4	C8H10NO2+
