Mass spectrum: Prometon; LC-ESI-QFT; MS2; CE: 90; R=17500; [M+H]+
Name: Prometon
Name: 6-methoxy-2-N,4-N-di(propan-2-yl)-1,3,5-triazine-2,4-diamine
Formula: C10H19N5O
Exact mass: 225.1590
SMILES: COC1=NC(NC(C)C)=NC(NC(C)C)=N1
InChI: InChI=1S/C10H19N5O/c1-6(2)11-8-13-9(12-7(3)4)15-10(14-8)16-5/h6-7H,1-5H3,(H2,11,12,13,14,15)
Instrument: Q Exactive Orbitrap (Thermo Scientific)
Instrument type: LC-ESI-QFT
Ms type: MS2
Ion mode: POSITIVE
Ionization: ESI
Fragmentation mode: HCD
Collision energy: 90
Resolution: 17500
Column name: Acquity BEH C18 1.7um, 2.1x150mm (Waters)
Retention time: 14.656 min
Base peak: 79.0211
Precursor m/z: 226.1662
Precursor type: [M+H]+
Precursor intensity: 96480138.8125
m/z	relative intensity	assigned
53.0022	13	C3HO+
53.9975	2	C2NO+
57.0447	933	C2H5N2+
58.0287	220	C2H4NO+
61.0397	5	CH5N2O+
68.0243	712	C2H2N3+
69.0083	429	C2HN2O+
71.0603	113	C3H7N2+
74.0714	4	C2H8N3+
75.0553	319	C2H7N2O+
82.04	123	C3H4N3+
83.024	122	C3H3N2O+
85.0509	39	C2H5N4+
85.076	55	C4H9N2+
86.0349	999	C2H4N3O+
96.0556	101	C4H6N3+
97.0397	72	C4H5N2O+
99.0666	90	C3H7N4+
100.0505	856	C3H6N3O+
110.0461	34	C3H4N5+
110.0713	5	C5H8N3+
111.0302	1	C3H3N4O+
113.0821	2	C4H9N4+
114.0662	56	C4H8N3O+
125.0458	7	C4H5N4O+
128.0819	41	C5H10N3O+
138.0772	6	C5H8N5+
142.0724	398	C4H8N5O+
168.0875	2	C6H10N5O+
170.1036	28	C6H12N5O+
184.1193	7	C7H14N5O+
