Mass spectrum: o-Toluenesulfonamide; LC-ESI-QFT; MS2; CE: 30; R=17500; [M-H]-
Name: o-Toluenesulfonamide
Name: 2-methylbenzenesulfonamide
Formula: C7H9NO2S
Exact mass: 171.0354
SMILES: CC1=C(C=CC=C1)S(N)(=O)=O
InChI: InChI=1S/C7H9NO2S/c1-6-4-2-3-5-7(6)11(8,9)10/h2-5H,1H3,(H2,8,9,10)
Instrument: Q Exactive Orbitrap (Thermo Scientific)
Instrument type: LC-ESI-QFT
Ms type: MS2
Ion mode: NEGATIVE
Ionization: ESI
Fragmentation mode: HCD
Collision energy: 30
Resolution: 17500
Column name: Acquity BEH C18 1.7um, 2.1x150mm (Waters)
Retention time: 16.168 min
Base peak: 310.1232
Precursor m/z: 170.0281
Precursor type: [M-H]-
Precursor intensity: 401952.3256836
m/z	relative intensity	assigned
78.9734	15	HNO2S-
79.9812	43	H2NO2S-
106.0662	336	C7H8N-
170.0282	999	C7H8NO2S-
