Mass spectrum: Alachlor; LC-ESI-QFT; MS2; CE: 75; R=17500; [M+H]+
Name: Alachlor
Name: 2-chloro-N-(2,6-diethylphenyl)-N-(methoxymethyl)acetamide
Formula: C14H20ClNO2
Exact mass: 269.1183
SMILES: CCC1=CC=CC(CC)=C1N(COC)C(=O)CCl
InChI: InChI=1S/C14H20ClNO2/c1-4-11-7-6-8-12(5-2)14(11)16(10-18-3)13(17)9-15/h6-8H,4-5,9-10H2,1-3H3
Instrument: Q Exactive Orbitrap (Thermo Scientific)
Instrument type: LC-ESI-QFT
Ms type: MS2
Ion mode: POSITIVE
Ionization: ESI
Fragmentation mode: HCD
Collision energy: 75
Resolution: 17500
Column name: Acquity BEH C18 1.7um, 2.1x150mm (Waters)
Retention time: 18.208 min
Base peak: 79.0211
Precursor m/z: 270.1255
Precursor type: [M+H]+
Precursor intensity: 733360.25
m/z	relative intensity	assigned
76.9789	50	C2H2ClO+
90.0108	146	C3H5ClN+
91.0543	72	C7H7+
95.0128	999	C5H3O2+
105.07	48	C8H9+
119.0734	49	C8H9N+
131.073	59	C9H9N+
132.0809	504	C9H10N+
133.0886	306	C9H11N+
134.0964	62	C9H12N+
146.0967	156	C10H12N+
147.1043	694	C10H13N+
148.1122	50	C10H14N+
158.0498	123	C8H11ClO+
162.1279	288	C11H16N+
163.1114	45	C11H15O+
