Mass spectrum: Prometon; LC-ESI-QFT; MS2; CE: 45; R=17500; [M+H]+
Name: Prometon
Name: 6-methoxy-2-N,4-N-di(propan-2-yl)-1,3,5-triazine-2,4-diamine
Formula: C10H19N5O
Exact mass: 225.1590
SMILES: COC1=NC(NC(C)C)=NC(NC(C)C)=N1
InChI: InChI=1S/C10H19N5O/c1-6(2)11-8-13-9(12-7(3)4)15-10(14-8)16-5/h6-7H,1-5H3,(H2,11,12,13,14,15)
Instrument: Q Exactive Orbitrap (Thermo Scientific)
Instrument type: LC-ESI-QFT
Ms type: MS2
Ion mode: POSITIVE
Ionization: ESI
Fragmentation mode: HCD
Collision energy: 45
Resolution: 17500
Column name: Acquity BEH C18 1.7um, 2.1x150mm (Waters)
Retention time: 14.656 min
Base peak: 79.0211
Precursor m/z: 226.1662
Precursor type: [M+H]+
Precursor intensity: 106547261.7813
m/z	relative intensity	assigned
53.0021	1	C3HO+
57.0447	28	C2H5N2+
57.0699	20	C4H9+
58.0289	2	C2H4NO+
68.0243	32	C2H2N3+
69.0082	7	C2HN2O+
71.0603	16	C3H7N2+
75.0553	51	C2H7N2O+
82.0399	4	C3H4N3+
83.024	3	C3H3N2O+
85.0509	2	C2H5N4+
85.076	37	C4H9N2+
86.0349	105	C2H4N3O+
96.0556	62	C4H6N3+
97.0396	26	C4H5N2O+
99.0665	10	C3H7N4+
100.0505	152	C3H6N3O+
110.0462	2	C3H4N5+
110.0713	29	C5H8N3+
113.0822	3	C4H9N4+
114.0662	90	C4H8N3O+
127.0979	2	C5H11N4+
128.0818	33	C5H10N3O+
138.0776	6	C5H8N5+
142.0723	822	C4H8N5O+
152.0931	2	C6H10N5+
152.1182	28	C8H14N3+
153.0769	1	C6H9N4O+
156.1132	2	C7H14N3O+
168.088	2	C6H10N5O+
170.1036	999	C6H12N5O+
184.1193	826	C7H14N5O+
226.1662	759	C10H20N5O+
