Mass spectrum: Bis(2-butoxyethyl) decanedioate; LC-ESI-QFT; MS2; CE: 30; R=17500; [M+H]+
Name: Bis(2-butoxyethyl) decanedioate
Name: Bis(2-butoxyethyl) sebacate
Formula: C22H42O6
Exact mass: 402.2981
SMILES: CCCCOCCOC(=O)CCCCCCCCC(=O)OCCOCCCC
InChI: InChI=1S/C22H42O6/c1-3-5-15-25-17-19-27-21(23)13-11-9-7-8-10-12-14-22(24)28-20-18-26-16-6-4-2/h3-20H2,1-2H3
Instrument: Q Exactive Orbitrap (Thermo Scientific)
Instrument type: LC-ESI-QFT
Ms type: MS2
Ion mode: POSITIVE
Ionization: ESI
Fragmentation mode: HCD
Collision energy: 30
Resolution: 17500
Column name: Acquity BEH C18 1.7um, 2.1x150mm (Waters)
Retention time: 20.199 min
Base peak: 79.0211
Precursor m/z: 403.3054
Precursor type: [M+H]+
Precursor intensity: 3515889.875
m/z	relative intensity	assigned
55.0542	149	C4H7+
57.0699	234	C4H9+
59.0491	23	C3H7O+
67.0543	10	C5H7+
69.0698	17	C5H9+
71.0492	10	C4H7O+
81.0699	31	C6H9+
83.0856	79	C6H11+
93.07	28	C7H9+
97.0651	14	C6H9O+
99.0441	28	C5H7O2+
101.0961	126	C6H13O+
121.1012	61	C9H13+
139.1121	66	C9H15O+
203.1279	32	C10H19O4+
211.133	419	C12H19O3+
213.1485	328	C12H21O3+
229.1435	999	C12H21O4+
273.1697	117	C14H25O5+
285.206	149	C16H29O4+
329.2327	390	C18H33O5+
