Mass spectrum: UK-156819; LC-ESI-QFT; MS2; CE: 30; R=17500; [M+H]+
Name: UK-156819
Name: 5-(2-Methyl-3-(pyridin-3-yl)-1H-indol-1-yl)pentanoic acid
Name: 5-(2-methyl-3-pyridin-3-ylindol-1-yl)pentanoic acid
Formula: C19H20N2O2
Exact mass: 308.1525
SMILES: CC1=C(C2=C(C=CC=C2)N1CCCCC(O)=O)C1=CN=CC=C1
InChI: InChI=1S/C19H20N2O2/c1-14-19(15-7-6-11-20-13-15)16-8-2-3-9-17(16)21(14)12-5-4-10-18(22)23/h2-3,6-9,11,13H,4-5,10,12H2,1H3,(H,22,23)
Instrument: Q Exactive Orbitrap (Thermo Scientific)
Instrument type: LC-ESI-QFT
Ms type: MS2
Ion mode: POSITIVE
Ionization: ESI
Fragmentation mode: HCD
Collision energy: 30
Resolution: 17500
Column name: Acquity BEH C18 1.7um, 2.1x150mm (Waters)
Retention time: 14.641 min
Base peak: 79.0211
Precursor m/z: 309.1598
Precursor type: [M+H]+
Precursor intensity: 22402426.5625
m/z	relative intensity	assigned
101.0597	1	C5H9O2+
207.0933	1	C14H11N2+
208.0992	2	C14H12N2+
209.1074	11	C14H13N2+
221.1082	1	C15H13N2+
245.1076	2	C17H13N2+
247.1232	3	C17H15N2+
263.1542	2	C18H19N2+
273.1381	2	C19H17N2+
291.1491	6	C19H19N2O+
309.1597	999	C19H21N2O2+
