Mass spectrum: UK-156819; LC-ESI-QFT; MS2; CE: 75; R=17500; [M+H]+
Name: UK-156819
Name: 5-(2-Methyl-3-(pyridin-3-yl)-1H-indol-1-yl)pentanoic acid
Name: 5-(2-methyl-3-pyridin-3-ylindol-1-yl)pentanoic acid
Formula: C19H20N2O2
Exact mass: 308.1525
SMILES: CC1=C(C2=C(C=CC=C2)N1CCCCC(O)=O)C1=CN=CC=C1
InChI: InChI=1S/C19H20N2O2/c1-14-19(15-7-6-11-20-13-15)16-8-2-3-9-17(16)21(14)12-5-4-10-18(22)23/h2-3,6-9,11,13H,4-5,10,12H2,1H3,(H,22,23)
Instrument: Q Exactive Orbitrap (Thermo Scientific)
Instrument type: LC-ESI-QFT
Ms type: MS2
Ion mode: POSITIVE
Ionization: ESI
Fragmentation mode: HCD
Collision energy: 75
Resolution: 17500
Column name: Acquity BEH C18 1.7um, 2.1x150mm (Waters)
Retention time: 14.646 min
Base peak: 79.0211
Precursor m/z: 309.1598
Precursor type: [M+H]+
Precursor intensity: 18812993
m/z	relative intensity	assigned
53.0385	3	C4H5+
55.0542	96	C4H7+
57.0334	1	C3H5O+
59.0491	30	C3H7O+
65.0385	1	C5H5+
78.0336	1	C5H4N+
79.0417	5	C5H5N+
80.0494	20	C5H6N+
83.0491	12	C5H7O+
91.0542	1	C7H7+
92.0494	6	C6H6N+
93.0573	5	C6H7N+
96.0443	1	C5H6NO+
101.0596	4	C5H9O2+
103.0537	1	C8H7+
104.0494	2	C7H6N+
105.0448	1	C6H5N2+
106.0652	5	C7H8N+
110.06	3	C6H8NO+
111.0315	4	C5H5NO2+
115.0542	9	C9H7+
116.0493	1	C8H6N+
117.0573	10	C8H7N+
118.0651	2	C8H8N+
128.0494	1	C9H6N+
129.0572	1	C9H7N+
129.0697	2	C10H9+
130.0651	74	C9H8N+
131.0602	3	C8H7N2+
131.0727	5	C9H9N+
139.0537	1	C11H7+
140.0495	1	C10H6N+
140.0619	1	C11H8+
141.0696	2	C11H9+
142.0651	9	C10H8N+
143.0729	3	C10H9N+
144.0806	12	C10H10N+
146.0599	1	C9H8NO+
152.0619	1	C12H8+
153.0572	1	C11H7N+
154.0649	14	C11H8N+
155.073	2	C11H9N+
156.0807	5	C11H10N+
160.0755	1	C10H10NO+
165.0697	9	C13H9+
166.0651	9	C12H8N+
167.0728	88	C12H9N+
168.0683	1	C11H8N2+
168.0807	24	C12H10N+
169.0753	1	C11H9N2+
169.0885	1	C12H11N+
170.0597	1	C11H8NO+
170.0962	6	C12H12N+
178.0654	1	C13H8N+
179.0731	5	C13H9N+
180.0807	114	C13H10N+
181.0762	4	C12H9N2+
181.0884	17	C13H11N+
182.0831	3	C12H10N2+
182.0964	23	C13H12N+
184.1135	1	C13H14N+
191.073	21	C14H9N+
192.0683	3	C13H8N2+
192.0806	31	C14H10N+
193.0759	48	C13H9N2+
193.0881	10	C14H11N+
194.0839	232	C13H10N2+
194.0956	23	C14H12N+
195.0914	2	C13H11N2+
196.1123	1	C14H14N+
204.0808	13	C15H10N+
205.0762	10	C14H9N2+
205.0886	2	C15H11N+
206.084	244	C14H10N2+
207.0916	999	C14H11N2+
208.0993	717	C14H12N2+
209.1071	203	C14H13N2+
217.0887	1	C16H11N+
218.0959	3	C16H12N+
219.0917	18	C15H11N2+
220.0995	51	C15H12N2+
221.1072	900	C15H13N2+
222.1149	41	C15H14N2+
223.1227	2	C15H15N2+
230.097	1	C17H12N+
231.0914	9	C16H11N2+
231.1042	1	C17H13N+
232.0992	17	C16H12N2+
233.1075	9	C16H13N2+
234.1148	3	C16H14N2+
235.1228	76	C16H15N2+
245.1079	4	C17H13N2+
246.1151	1	C17H14N2+
247.1229	28	C17H15N2+
248.1304	16	C17H16N2+
249.1384	18	C17H17N2+
258.1144	1	C18H14N2+
261.1393	1	C18H17N2+
263.1542	5	C18H19N2+
291.1491	4	C19H19N2O+
293.1282	2	C18H17N2O2+
294.1347	1	C18H18N2O2+
309.1599	18	C19H21N2O2+
