Mass spectrum: Alachlor; LC-ESI-QFT; MS2; CE: 60; R=17500; [M+H]+
Name: Alachlor
Name: 2-chloro-N-(2,6-diethylphenyl)-N-(methoxymethyl)acetamide
Formula: C14H20ClNO2
Exact mass: 269.1183
SMILES: CCC1=CC=CC(CC)=C1N(COC)C(=O)CCl
InChI: InChI=1S/C14H20ClNO2/c1-4-11-7-6-8-12(5-2)14(11)16(10-18-3)13(17)9-15/h6-8H,4-5,9-10H2,1-3H3
Instrument: Q Exactive Orbitrap (Thermo Scientific)
Instrument type: LC-ESI-QFT
Ms type: MS2
Ion mode: POSITIVE
Ionization: ESI
Fragmentation mode: HCD
Collision energy: 60
Resolution: 17500
Column name: Acquity BEH C18 1.7um, 2.1x150mm (Waters)
Retention time: 18.208 min
Base peak: 79.0211
Precursor m/z: 270.1255
Precursor type: [M+H]+
Precursor intensity: 1663384.5
m/z	relative intensity	assigned
57.07	53	C4H9+
59.0492	205	C3H7O+
74.0965	132	C4H12N+
76.9788	84	C2H2ClO+
90.0106	206	C3H5ClN+
91.0545	40	C7H7+
95.0129	999	C5H3O2+
115.0541	48	C9H7+
120.0809	65	C8H10N+
131.0731	49	C9H9N+
132.0809	154	C9H10N+
133.0888	395	C9H11N+
134.0964	58	C9H12N+
144.0812	50	C10H10N+
146.0965	151	C10H12N+
147.1044	547	C10H13N+
148.1123	435	C10H14N+
149.0963	62	C10H13O+
158.0497	580	C8H11ClO+
162.1279	603	C11H16N+
163.1118	189	C11H15O+
