Mass spectrum: 3-[Ethyl(phenyl)amino]propanenitrile; LC-ESI-QFT; MS2; CE: 75; R=17500; [M+H]+
Name: 3-[Ethyl(phenyl)amino]propanenitrile
Name: N-(2-Cyanoethyl)-N-ethylaniline
Formula: C11H14N2
Exact mass: 174.1157
SMILES: CCN(CCC#N)C1=CC=CC=C1
InChI: InChI=1S/C11H14N2/c1-2-13(10-6-9-12)11-7-4-3-5-8-11/h3-5,7-8H,2,6,10H2,1H3
Instrument: Q Exactive Orbitrap (Thermo Scientific)
Instrument type: LC-ESI-QFT
Ms type: MS2
Ion mode: POSITIVE
Ionization: ESI
Fragmentation mode: HCD
Collision energy: 75
Resolution: 17500
Column name: Acquity BEH C18 1.7um, 2.1x150mm (Waters)
Retention time: 15.747 min
Base peak: 79.0211
Precursor m/z: 175.123
Precursor type: [M+H]+
Precursor intensity: 13512722.28125
m/z	relative intensity	assigned
53.0386	2	C4H5+
77.0382	2	C6H5+
78.0464	1	C6H6+
79.0542	22	C6H7+
93.0573	22	C6H7N+
94.0651	1	C6H8N+
103.054	1	C8H7+
104.0493	3	C7H6N+
105.045	3	C6H5N2+
105.07	1	C8H9+
106.065	999	C7H8N+
118.065	2	C8H8N+
119.0729	24	C8H9N+
120.0807	5	C8H10N+
121.0885	67	C8H11N+
122.0963	2	C8H12N+
130.0648	1	C9H8N+
134.0963	68	C9H12N+
146.0838	2	C9H10N2+
