Mass spectrum: dl-Norgestrel; LC-ESI-QFT; MS2; CE: 75; R=17500; [M+H]+
Name: dl-Norgestrel
Name: (8R,9S,10R,13S,14S)-13-ethyl-17-ethynyl-17-hydroxy-1,2,6,7,8,9,10,11,12,14,15,16-dodecahydrocyclopenta[a]phenanthren-3-one
Formula: C21H28O2
Exact mass: 312.2089
SMILES: CC[C@]12CC[C@H]3[C@@H](CCC4=CC(=O)CC[C@H]34)[C@@H]1CCC2(O)C#C
InChI: InChI=1S/C21H28O2/c1-3-20-11-9-17-16-8-6-15(22)13-14(16)5-7-18(17)19(20)10-12-21(20,23)4-2/h2,13,16-19,23H,3,5-12H2,1H3/t16-,17+,18+,19-,20-,21?/m0/s1
Instrument: Q Exactive Orbitrap (Thermo Scientific)
Instrument type: LC-ESI-QFT
Ms type: MS2
Ion mode: POSITIVE
Ionization: ESI
Fragmentation mode: HCD
Collision energy: 75
Resolution: 17500
Column name: Acquity BEH C18 1.7um, 2.1x150mm (Waters)
Retention time: 17.935 min
Base peak: 79.0211
Precursor m/z: 313.2162
Precursor type: [M+H]+
Precursor intensity: 4514769.0625
m/z	relative intensity	assigned
53.0022	25	C3HO+
53.0386	75	C4H5+
55.0179	69	C3H3O+
55.0543	196	C4H7+
57.0334	20	C3H5O+
57.07	14	C4H9+
65.0385	61	C5H5+
67.0542	352	C5H7+
69.0334	12	C4H5O+
69.0699	45	C5H9+
77.0385	13	C6H5+
79.0542	677	C6H7+
81.0335	40	C5H5O+
81.0699	551	C6H9+
83.0491	490	C5H7O+
91.0542	999	C7H7+
93.0699	343	C7H9+
95.0491	167	C6H7O+
95.0855	157	C7H11+
97.0649	24	C6H9O+
103.0542	85	C8H7+
105.0699	514	C8H9+
107.0492	239	C7H7O+
107.0855	132	C8H11+
109.0648	767	C7H9O+
111.0804	5	C7H11O+
115.0542	170	C9H7+
116.0621	88	C9H8+
117.0699	330	C9H9+
119.0856	202	C9H11+
121.0649	33	C8H9O+
121.1013	34	C9H13+
123.0805	52	C8H11O+
123.117	25	C9H15+
128.0621	219	C10H8+
129.0698	307	C10H9+
130.0777	67	C10H10+
131.0856	246	C10H11+
133.0648	44	C9H9O+
133.1011	100	C10H13+
135.0805	152	C9H11O+
135.1169	20	C10H15+
141.0699	128	C11H9+
142.0778	117	C11H10+
143.0856	153	C11H11+
144.0934	25	C11H12+
145.0647	29	C10H9O+
145.1012	107	C11H13+
147.0805	34	C10H11O+
147.1168	23	C11H15+
148.0885	8	C10H12O+
149.0962	47	C10H13O+
153.0699	43	C12H9+
154.0776	36	C12H10+
155.0856	106	C12H11+
156.0935	36	C12H12+
157.0649	6	C11H9O+
157.1012	76	C12H13+
159.0806	22	C11H11O+
159.1169	31	C12H15+
160.0881	4	C11H12O+
161.0962	47	C11H13O+
163.1118	10	C11H15O+
165.0699	57	C13H9+
166.0776	28	C13H10+
167.0857	48	C13H11+
168.0935	27	C13H12+
169.1011	45	C13H13+
170.1092	11	C13H14+
171.0801	4	C12H11O+
171.1168	34	C13H15+
173.0963	8	C12H13O+
173.1328	8	C13H17+
175.1119	15	C12H15O+
175.1483	9	C13H19+
179.0854	37	C14H11+
180.0939	17	C14H12+
181.1012	34	C14H13+
182.109	11	C14H14+
183.117	23	C14H15+
184.1252	6	C14H16+
185.0959	4	C13H13O+
185.1323	21	C14H17+
187.1119	14	C13H15O+
187.1484	5	C14H19+
188.1197	12	C13H16O+
189.1273	8	C13H17O+
192.0934	10	C15H12+
193.1011	21	C15H13+
194.1092	8	C15H14+
195.1171	12	C15H15+
197.0967	5	C14H13O+
197.1331	5	C15H17+
198.1399	4	C15H18+
199.1479	6	C15H19+
201.1278	5	C14H17O+
205.1012	12	C16H13+
206.1096	4	C16H14+
207.1169	13	C16H15+
209.1325	5	C16H17+
219.1168	8	C17H15+
221.1324	5	C17H17+
247.1481	3	C19H19+
