Mass spectrum: Maprotiline; LC-ESI-QFT; MS2; CE: 30; R=17500; [M+H]+
Name: Maprotiline
Name: N-methyl-3-(1-tetracyclo[6.6.2.02,7.09,14]hexadeca-2,4,6,9,11,13-hexaenyl)propan-1-amine
Formula: C20H23N
Exact mass: 277.1830
SMILES: CNCCCC12CCC(C3=C1C=CC=C3)C1=C2C=CC=C1
InChI: InChI=1S/C20H23N/c1-21-14-6-12-20-13-11-15(16-7-2-4-9-18(16)20)17-8-3-5-10-19(17)20/h2-5,7-10,15,21H,6,11-14H2,1H3
Instrument: Q Exactive Orbitrap (Thermo Scientific)
Instrument type: LC-ESI-QFT
Ms type: MS2
Ion mode: POSITIVE
Ionization: ESI
Fragmentation mode: HCD
Collision energy: 30
Resolution: 17500
Column name: Acquity BEH C18 1.7um, 2.1x150mm (Waters)
Retention time: 15.622 min
Base peak: 79.0211
Precursor m/z: 278.1903
Precursor type: [M+H]+
Precursor intensity: 80311482.8125
m/z	relative intensity	assigned
58.0651	21	C3H8N+
70.0651	1	C4H8N+
72.0808	2	C4H10N+
84.0808	48	C5H10N+
85.0886	1	C5H11N+
91.0542	174	C7H7+
105.0699	133	C8H9+
115.0542	1	C9H7+
117.0699	220	C9H9+
119.0856	7	C9H11+
129.0698	16	C10H9+
131.0855	21	C10H11+
141.0698	9	C11H9+
143.0856	12	C11H11+
155.0855	39	C12H11+
169.1011	61	C13H13+
178.0775	11	C14H10+
179.0854	15	C14H11+
189.0709	1	C15H9+
191.0854	64	C15H11+
192.0935	1	C15H12+
193.1011	8	C15H13+
203.0857	1	C16H11+
204.0932	5	C16H12+
205.1012	21	C16H13+
207.1168	7	C16H15+
218.109	17	C17H14+
219.1168	46	C17H15+
231.117	1	C18H15+
233.1325	272	C18H17+
247.1482	24	C19H19+
250.159	368	C18H20N+
278.1903	999	C20H24N+
