Mass spectrum: Bis(2-butoxyethyl) decanedioate; LC-ESI-QFT; MS2; CE: 75; R=17500; [M+H]+
Name: Bis(2-butoxyethyl) decanedioate
Name: Bis(2-butoxyethyl) sebacate
Formula: C22H42O6
Exact mass: 402.2981
SMILES: CCCCOCCOC(=O)CCCCCCCCC(=O)OCCOCCCC
InChI: InChI=1S/C22H42O6/c1-3-5-15-25-17-19-27-21(23)13-11-9-7-8-10-12-14-22(24)28-20-18-26-16-6-4-2/h3-20H2,1-2H3
Instrument: Q Exactive Orbitrap (Thermo Scientific)
Instrument type: LC-ESI-QFT
Ms type: MS2
Ion mode: POSITIVE
Ionization: ESI
Fragmentation mode: HCD
Collision energy: 75
Resolution: 17500
Column name: Acquity BEH C18 1.7um, 2.1x150mm (Waters)
Retention time: 20.199 min
Base peak: 79.0211
Precursor m/z: 403.3054
Precursor type: [M+H]+
Precursor intensity: 3918127.984375
m/z	relative intensity	assigned
53.0022	36	C3HO+
53.0386	44	C4H5+
55.0179	716	C3H3O+
55.0543	962	C4H7+
57.0335	105	C3H5O+
57.0699	329	C4H9+
67.0542	669	C5H7+
69.0699	999	C5H9+
71.049	48	C4H7O+
73.0285	74	C3H5O2+
79.0542	626	C6H7+
81.0699	787	C6H9+
83.0491	106	C5H7O+
91.0542	152	C7H7+
93.07	603	C7H9+
95.0491	52	C6H7O+
95.0856	499	C7H11+
97.0648	162	C6H9O+
97.1012	98	C7H13+
99.0441	708	C5H7O2+
105.0699	61	C8H9+
121.1012	87	C9H13+
