Mass spectrum: UK-156819; LC-ESI-QFT; MS2; CE: 90; R=17500; [M+H]+
Name: UK-156819
Name: 5-(2-Methyl-3-(pyridin-3-yl)-1H-indol-1-yl)pentanoic acid
Name: 5-(2-methyl-3-pyridin-3-ylindol-1-yl)pentanoic acid
Formula: C19H20N2O2
Exact mass: 308.1525
SMILES: CC1=C(C2=C(C=CC=C2)N1CCCCC(O)=O)C1=CN=CC=C1
InChI: InChI=1S/C19H20N2O2/c1-14-19(15-7-6-11-20-13-15)16-8-2-3-9-17(16)21(14)12-5-4-10-18(22)23/h2-3,6-9,11,13H,4-5,10,12H2,1H3,(H,22,23)
Instrument: Q Exactive Orbitrap (Thermo Scientific)
Instrument type: LC-ESI-QFT
Ms type: MS2
Ion mode: POSITIVE
Ionization: ESI
Fragmentation mode: HCD
Collision energy: 90
Resolution: 17500
Column name: Acquity BEH C18 1.7um, 2.1x150mm (Waters)
Retention time: 14.646 min
Base peak: 79.0211
Precursor m/z: 309.1598
Precursor type: [M+H]+
Precursor intensity: 21675149.75
m/z	relative intensity	assigned
53.0021	1	C3HO+
53.0386	4	C4H5+
55.0542	57	C4H7+
59.0491	16	C3H7O+
65.0385	2	C5H5+
78.0337	1	C5H4N+
79.0415	9	C5H5N+
80.0494	18	C5H6N+
83.049	3	C5H7O+
91.0541	2	C7H7+
92.0495	3	C6H6N+
93.0571	3	C6H7N+
96.0444	3	C5H6NO+
103.0541	5	C8H7+
104.0493	3	C7H6N+
105.0447	1	C6H5N2+
105.07	1	C8H9+
106.0651	4	C7H8N+
110.0601	3	C6H8NO+
111.0314	7	C5H5NO2+
115.0542	15	C9H7+
116.0494	1	C8H6N+
117.0572	12	C8H7N+
118.065	1	C8H8N+
128.0493	9	C9H6N+
129.0697	3	C10H9+
130.0651	75	C9H8N+
131.0603	3	C8H7N2+
131.0727	4	C9H9N+
139.054	4	C11H7+
140.0491	3	C10H6N+
140.0619	5	C11H8+
141.0698	4	C11H9+
142.065	9	C10H8N+
143.0728	6	C10H9N+
144.0806	12	C10H10N+
146.06	4	C9H8NO+
152.062	8	C12H8+
153.0572	2	C11H7N+
153.0697	5	C12H9+
154.0651	20	C11H8N+
155.0602	1	C10H7N2+
155.0727	2	C11H9N+
156.081	4	C11H10N+
160.0755	1	C10H10NO+
165.0698	11	C13H9+
166.0651	38	C12H8N+
167.0729	128	C12H9N+
168.0679	2	C11H8N2+
168.0806	21	C12H10N+
169.0756	1	C11H9N2+
169.0885	1	C12H11N+
170.0601	10	C11H8NO+
170.0961	5	C12H12N+
178.0652	4	C13H8N+
179.073	14	C13H9N+
180.0806	290	C13H10N+
181.0757	5	C12H9N2+
181.0885	14	C13H11N+
182.0831	3	C12H10N2+
182.0965	10	C13H12N+
184.1124	1	C13H14N+
190.0649	6	C14H8N+
191.0729	26	C14H9N+
192.0681	13	C13H8N2+
192.0806	20	C14H10N+
193.0759	71	C13H9N2+
193.0882	15	C14H11N+
194.0838	159	C13H10N2+
194.0959	54	C14H12N+
195.0909	1	C13H11N2+
204.0808	30	C15H10N+
205.0762	45	C14H9N2+
205.0883	5	C15H11N+
206.0839	684	C14H10N2+
207.0915	999	C14H11N2+
208.0993	216	C14H12N2+
209.1072	32	C14H13N2+
217.0888	2	C16H11N+
218.0963	3	C16H12N+
219.0916	42	C15H11N2+
220.0995	106	C15H12N2+
221.1072	521	C15H13N2+
222.1148	6	C15H14N2+
230.0969	1	C17H12N+
231.0914	7	C16H11N2+
232.0994	5	C16H12N2+
233.1072	7	C16H13N2+
234.1151	2	C16H14N2+
235.1229	37	C16H15N2+
245.1082	1	C17H13N2+
247.1231	10	C17H15N2+
248.1305	1	C17H16N2+
249.1384	8	C17H17N2+
291.1486	1	C19H19N2O+
