Mass spectrum: 4-Dimethylaminobenzaldehyde; LC-ESI-QFT; MS2; CE: 90; R=17500; [M+H]+
Name: 4-Dimethylaminobenzaldehyde
Name: 4-(dimethylamino)benzaldehyde
Formula: C9H11NO
Exact mass: 149.0841
SMILES: CN(C)C1=CC=C(C=O)C=C1
InChI: InChI=1S/C9H11NO/c1-10(2)9-5-3-8(7-11)4-6-9/h3-7H,1-2H3
Instrument: Q Exactive Orbitrap (Thermo Scientific)
Instrument type: LC-ESI-QFT
Ms type: MS2
Ion mode: POSITIVE
Ionization: ESI
Fragmentation mode: HCD
Collision energy: 90
Resolution: 17500
Column name: Acquity BEH C18 1.7um, 2.1x150mm (Waters)
Retention time: 14.863 min
Base peak: 79.0211
Precursor m/z: 150.0913
Precursor type: [M+H]+
Precursor intensity: 8894304.15625
m/z	relative intensity	assigned
53.0386	13	C4H5+
65.0385	7	C5H5+
66.0464	23	C5H6+
67.0542	1	C5H7+
77.0383	9	C6H5+
78.0464	8	C6H6+
79.0542	79	C6H7+
80.0494	12	C5H6N+
81.0334	2	C5H5O+
81.0573	6	C5H7N+
81.0699	5	C6H9+
91.0542	17	C7H7+
92.0495	11	C6H6N+
92.0622	1	C7H8+
93.0573	6	C6H7N+
93.0699	13	C7H9+
94.0651	7	C6H8N+
95.0492	49	C6H7O+
103.0543	24	C8H7+
104.0494	7	C7H6N+
105.0336	1	C7H5O+
105.0574	27	C7H7N+
106.0652	466	C7H8N+
107.0729	564	C7H9N+
108.0444	1	C6H6NO+
109.0523	1	C6H7NO+
110.0601	2	C6H8NO+
118.0652	23	C8H8N+
119.0731	4	C8H9N+
120.0808	999	C8H10N+
121.0885	194	C8H11N+
122.0963	98	C8H12N+
134.0601	13	C8H8NO+
135.068	1	C8H9NO+
150.0914	16	C9H12NO+
