Mass spectrum: Ethyl 5-oxo-1-phenyl-4,5-dihydro-1H-pyrazole-3-carboxylate; LC-ESI-QFT; MS2; CE: 90; R=17500; [M+H]+
Name: Ethyl 5-oxo-1-phenyl-4,5-dihydro-1H-pyrazole-3-carboxylate
Name: ethyl 5-oxo-1-phenyl-4H-pyrazole-3-carboxylate
Formula: C12H12N2O3
Exact mass: 232.0848
SMILES: CCOC(=O)C1=NN(C(=O)C1)C1=CC=CC=C1
InChI: InChI=1S/C12H12N2O3/c1-2-17-12(16)10-8-11(15)14(13-10)9-6-4-3-5-7-9/h3-7H,2,8H2,1H3
Instrument: Q Exactive Orbitrap (Thermo Scientific)
Instrument type: LC-ESI-QFT
Ms type: MS2
Ion mode: POSITIVE
Ionization: ESI
Fragmentation mode: HCD
Collision energy: 90
Resolution: 17500
Column name: Acquity BEH C18 1.7um, 2.1x150mm (Waters)
Retention time: 15.216 min
Base peak: 79.0212
Precursor m/z: 233.0921
Precursor type: [M+H]+
Precursor intensity: 5022893.5
m/z	relative intensity	assigned
53.0386	50	C4H5+
65.0385	20	C5H5+
72.0444	11	C3H6NO+
77.0385	14	C6H5+
80.0494	37	C5H6N+
92.0494	28	C6H6N+
95.0492	50	C6H7O+
96.0444	35	C5H6NO+
104.0494	966	C7H6N+
105.0447	55	C6H5N2+
107.0604	8	C6H7N2+
108.0444	5	C6H6NO+
110.06	36	C6H8NO+
117.0445	4	C7H5N2+
122.0601	18	C7H8NO+
126.0549	5	C6H8NO2+
131.0604	778	C8H7N2+
135.0553	7	C7H7N2O+
138.055	4	C7H8NO2+
143.0604	70	C9H7N2+
147.0553	18	C8H7N2O+
149.0709	8	C8H9N2O+
159.0553	999	C9H7N2O+
161.0344	5	C8H5N2O2+
187.0502	196	C10H7N2O2+
205.0608	421	C10H9N2O3+
219.0763	20	C11H11N2O3+
233.0922	3	C12H13N2O3+
