Mass spectrum: Maprotiline; LC-ESI-QFT; MS2; CE: 90; R=17500; [M+H]+
Name: Maprotiline
Name: N-methyl-3-(1-tetracyclo[6.6.2.02,7.09,14]hexadeca-2,4,6,9,11,13-hexaenyl)propan-1-amine
Formula: C20H23N
Exact mass: 277.1830
SMILES: CNCCCC12CCC(C3=C1C=CC=C3)C1=C2C=CC=C1
InChI: InChI=1S/C20H23N/c1-21-14-6-12-20-13-11-15(16-7-2-4-9-18(16)20)17-8-3-5-10-19(17)20/h2-5,7-10,15,21H,6,11-14H2,1H3
Instrument: Q Exactive Orbitrap (Thermo Scientific)
Instrument type: LC-ESI-QFT
Ms type: MS2
Ion mode: POSITIVE
Ionization: ESI
Fragmentation mode: HCD
Collision energy: 90
Resolution: 17500
Column name: Acquity BEH C18 1.7um, 2.1x150mm (Waters)
Retention time: 15.622 min
Base peak: 79.0211
Precursor m/z: 278.1903
Precursor type: [M+H]+
Precursor intensity: 70233118
m/z	relative intensity	assigned
53.0385	13	C4H5+
55.0542	4	C4H7+
56.0494	3	C3H6N+
57.0573	3	C3H7N+
58.0651	45	C3H8N+
63.0229	3	C5H3+
65.0385	70	C5H5+
67.0542	2	C5H7+
68.0493	1	C4H6N+
69.0572	1	C4H7N+
70.065	68	C4H8N+
71.0729	1	C4H9N+
72.0806	10	C4H10N+
77.0385	8	C6H5+
79.0542	92	C6H7+
82.0651	2	C5H8N+
84.0807	92	C5H10N+
85.0886	3	C5H11N+
89.0384	1	C7H5+
91.0542	999	C7H7+
103.0542	84	C8H7+
105.0698	199	C8H9+
115.0542	408	C9H7+
116.062	23	C9H8+
117.0698	418	C9H9+
119.0853	2	C9H11+
127.0542	13	C10H7+
128.062	148	C10H8+
129.0698	102	C10H9+
131.0855	47	C10H11+
141.0698	204	C11H9+
142.0775	4	C11H10+
143.0852	8	C11H11+
152.0618	17	C12H8+
153.0698	43	C12H9+
154.0776	30	C12H10+
155.0854	23	C12H11+
165.0698	84	C13H9+
166.0777	2	C13H10+
167.0853	4	C13H11+
169.1009	3	C13H13+
177.0694	7	C14H9+
178.0776	744	C14H10+
179.0853	72	C14H11+
189.0698	143	C15H9+
190.0776	220	C15H10+
191.0854	959	C15H11+
192.0932	23	C15H12+
193.1012	13	C15H13+
202.0776	140	C16H10+
203.0854	374	C16H11+
204.0932	234	C16H12+
205.1011	22	C16H13+
215.0854	31	C17H11+
216.0932	14	C17H12+
217.1011	95	C17H13+
218.1089	27	C17H14+
219.1165	20	C17H15+
