Mass spectrum: UK-156819; LC-ESI-QFT; MS2; CE: 60; R=17500; [M+H]+
Name: UK-156819
Name: 5-(2-Methyl-3-(pyridin-3-yl)-1H-indol-1-yl)pentanoic acid
Name: 5-(2-methyl-3-pyridin-3-ylindol-1-yl)pentanoic acid
Formula: C19H20N2O2
Exact mass: 308.1525
SMILES: CC1=C(C2=C(C=CC=C2)N1CCCCC(O)=O)C1=CN=CC=C1
InChI: InChI=1S/C19H20N2O2/c1-14-19(15-7-6-11-20-13-15)16-8-2-3-9-17(16)21(14)12-5-4-10-18(22)23/h2-3,6-9,11,13H,4-5,10,12H2,1H3,(H,22,23)
Instrument: Q Exactive Orbitrap (Thermo Scientific)
Instrument type: LC-ESI-QFT
Ms type: MS2
Ion mode: POSITIVE
Ionization: ESI
Fragmentation mode: HCD
Collision energy: 60
Resolution: 17500
Column name: Acquity BEH C18 1.7um, 2.1x150mm (Waters)
Retention time: 14.641 min
Base peak: 79.0211
Precursor m/z: 309.1598
Precursor type: [M+H]+
Precursor intensity: 22732097.25
m/z	relative intensity	assigned
53.0386	2	C4H5+
55.0543	132	C4H7+
57.0335	2	C3H5O+
59.0492	37	C3H7O+
73.0647	2	C4H9O+
79.0417	1	C5H5N+
80.0495	15	C5H6N+
83.0491	35	C5H7O+
92.0495	4	C6H6N+
93.0573	3	C6H7N+
101.0597	19	C5H9O2+
105.0447	1	C6H5N2+
106.029	1	C6H4NO+
106.0652	6	C7H8N+
110.0602	1	C6H8NO+
115.0542	2	C9H7+
117.0572	4	C8H7N+
118.0651	2	C8H8N+
130.0652	40	C9H8N+
131.0604	2	C8H7N2+
131.0731	2	C9H9N+
139.0548	1	C11H7+
142.065	5	C10H8N+
143.0732	1	C10H9N+
144.0808	8	C10H10N+
154.0652	10	C11H8N+
155.0602	1	C10H7N2+
155.0728	1	C11H9N+
156.0808	2	C11H10N+
165.0697	4	C13H9+
166.0654	2	C12H8N+
167.0729	30	C12H9N+
168.0809	26	C12H10N+
169.0885	2	C12H11N+
170.0964	7	C12H12N+
179.0735	2	C13H9N+
180.0808	33	C13H10N+
181.0759	1	C12H9N2+
181.0886	11	C13H11N+
182.0966	28	C13H12N+
184.1123	3	C13H14N+
185.1204	1	C13H15N+
191.0732	10	C14H9N+
192.0809	32	C14H10N+
193.0762	15	C13H9N2+
193.0885	5	C14H11N+
194.084	150	C13H10N2+
194.0957	11	C14H12N+
195.0914	2	C13H11N2+
195.1051	1	C14H13N+
204.081	7	C15H10N+
205.0763	2	C14H9N2+
205.0893	1	C15H11N+
206.0841	43	C14H10N2+
206.0961	3	C15H12N+
207.0919	356	C14H11N2+
208.0996	999	C14H12N2+
209.1073	668	C14H13N2+
217.0884	2	C16H11N+
218.0962	4	C16H12N+
219.0921	8	C15H11N2+
220.1	25	C15H12N2+
220.1122	3	C16H14N+
221.1073	662	C15H13N2+
222.1151	85	C15H14N2+
223.1231	10	C15H15N2+
230.097	3	C17H12N+
231.0916	6	C16H11N2+
231.1046	2	C17H13N+
232.0995	29	C16H12N2+
232.1118	1	C17H14N+
233.1076	10	C16H13N2+
234.1152	5	C16H14N2+
235.123	71	C16H15N2+
236.1306	2	C16H16N2+
245.1073	25	C17H13N2+
246.1151	1	C17H14N2+
246.1277	2	C18H16N+
247.123	112	C17H15N2+
248.1307	72	C17H16N2+
249.1387	19	C17H17N2+
254.1179	1	C16H16NO2+
258.1147	4	C18H14N2+
261.1389	2	C18H17N2+
263.1543	43	C18H19N2+
265.1703	2	C18H21N2+
273.1386	12	C19H17N2+
280.1331	1	C18H18NO2+
282.1481	1	C18H20NO2+
291.1493	29	C19H19N2O+
292.1326	1	C19H18NO2+
293.1288	5	C18H17N2O2+
294.1363	8	C18H18N2O2+
307.1442	2	C19H19N2O2+
309.1598	405	C19H21N2O2+
