Mass spectrum: Maprotiline; LC-ESI-QFT; MS2; CE: 15; R=17500; [M+H]+
Name: Maprotiline
Name: N-methyl-3-(1-tetracyclo[6.6.2.02,7.09,14]hexadeca-2,4,6,9,11,13-hexaenyl)propan-1-amine
Formula: C20H23N
Exact mass: 277.1830
SMILES: CNCCCC12CCC(C3=C1C=CC=C3)C1=C2C=CC=C1
InChI: InChI=1S/C20H23N/c1-21-14-6-12-20-13-11-15(16-7-2-4-9-18(16)20)17-8-3-5-10-19(17)20/h2-5,7-10,15,21H,6,11-14H2,1H3
Instrument: Q Exactive Orbitrap (Thermo Scientific)
Instrument type: LC-ESI-QFT
Ms type: MS2
Ion mode: POSITIVE
Ionization: ESI
Fragmentation mode: HCD
Collision energy: 15
Resolution: 17500
Column name: Acquity BEH C18 1.7um, 2.1x150mm (Waters)
Retention time: 15.622 min
Base peak: 79.0211
Precursor m/z: 278.1903
Precursor type: [M+H]+
Precursor intensity: 84976802
m/z	relative intensity	assigned
58.0651	1	C3H8N+
84.0807	1	C5H10N+
91.0542	7	C7H7+
105.0698	5	C8H9+
117.0698	11	C9H9+
155.0856	1	C12H11+
169.1011	2	C13H13+
178.0772	1	C14H10+
191.0854	3	C15H11+
219.1164	1	C17H15+
233.1325	33	C18H17+
247.1484	4	C19H19+
250.159	30	C18H20N+
278.1903	999	C20H24N+
