Mass spectrum: Phenacetin; LC-ESI-QFT; MS2; CE: 60; R=17500; [M+H]+
Name: Phenacetin
Name: N-(4-ethoxyphenyl)acetamide
Formula: C10H13NO2
Exact mass: 179.0946
SMILES: CCOC1=CC=C(NC(C)=O)C=C1
InChI: InChI=1S/C10H13NO2/c1-3-13-10-6-4-9(5-7-10)11-8(2)12/h4-7H,3H2,1-2H3,(H,11,12)
Instrument: Q Exactive Orbitrap (Thermo Scientific)
Instrument type: LC-ESI-QFT
Ms type: MS2
Ion mode: POSITIVE
Ionization: ESI
Fragmentation mode: HCD
Collision energy: 60
Resolution: 17500
Column name: Acquity BEH C18 1.7um, 2.1x150mm (Waters)
Retention time: 14.216 min
Base peak: 79.0212
Precursor m/z: 180.1019
Precursor type: [M+H]+
Precursor intensity: 17463613.25
m/z	relative intensity	assigned
65.0386	32	C5H5+
67.0542	3	C5H7+
80.0495	1	C5H6N+
82.0651	21	C5H8N+
91.0543	1	C7H7+
92.0495	54	C6H6N+
93.0336	36	C6H5O+
93.0573	32	C6H7N+
94.0652	8	C6H8N+
95.049	1	C6H7O+
108.0445	2	C6H6NO+
109.0524	23	C6H7NO+
110.0601	999	C6H8NO+
111.044	78	C6H7O2+
125.0597	5	C7H9O2+
134.0601	15	C8H8NO+
137.0835	2	C8H11NO+
138.0914	256	C8H12NO+
139.0753	1	C8H11O2+
152.0706	34	C8H10NO2+
162.0913	13	C10H12NO+
180.1019	56	C10H14NO2+
