Mass spectrum: Bis(2-butoxyethyl) decanedioate; LC-ESI-QFT; MS2; CE: 90; R=17500; [M+H]+
Name: Bis(2-butoxyethyl) decanedioate
Name: Bis(2-butoxyethyl) sebacate
Formula: C22H42O6
Exact mass: 402.2981
SMILES: CCCCOCCOC(=O)CCCCCCCCC(=O)OCCOCCCC
InChI: InChI=1S/C22H42O6/c1-3-5-15-25-17-19-27-21(23)13-11-9-7-8-10-12-14-22(24)28-20-18-26-16-6-4-2/h3-20H2,1-2H3
Instrument: Q Exactive Orbitrap (Thermo Scientific)
Instrument type: LC-ESI-QFT
Ms type: MS2
Ion mode: POSITIVE
Ionization: ESI
Fragmentation mode: HCD
Collision energy: 90
Resolution: 17500
Column name: Acquity BEH C18 1.7um, 2.1x150mm (Waters)
Retention time: 20.199 min
Base peak: 79.0212
Precursor m/z: 403.3054
Precursor type: [M+H]+
Precursor intensity: 3129342.625
m/z	relative intensity	assigned
53.0023	114	C3HO+
55.0179	824	C3H3O+
55.0543	999	C4H7+
57.0336	42	C3H5O+
57.0699	193	C4H9+
67.0542	642	C5H7+
69.0699	718	C5H9+
79.0543	574	C6H7+
81.0699	461	C6H9+
83.0492	73	C5H7O+
91.0544	150	C7H7+
93.07	304	C7H9+
95.0492	167	C6H7O+
95.0856	213	C7H11+
97.0649	80	C6H9O+
99.0442	266	C5H7O2+
