Mass spectrum: N-(2,4-Dimethylphenyl)formamide; LC-ESI-QFT; MS2; CE: 30; R=17500; [M+H]+
Name: N-(2,4-Dimethylphenyl)formamide
Formula: C9H11NO
Exact mass: 149.0841
SMILES: CC1=CC=C(NC=O)C(C)=C1
InChI: InChI=1S/C9H11NO/c1-7-3-4-9(10-6-11)8(2)5-7/h3-6H,1-2H3,(H,10,11)
Instrument: Q Exactive Orbitrap (Thermo Scientific)
Instrument type: LC-ESI-QFT
Ms type: MS2
Ion mode: POSITIVE
Ionization: ESI
Fragmentation mode: HCD
Collision energy: 30
Resolution: 17500
Column name: Acquity BEH C18 1.7um, 2.1x150mm (Waters)
Retention time: 14.859 min
Base peak: 79.0212
Precursor m/z: 150.0913
Precursor type: [M+H]+
Precursor intensity: 9694410.90625
m/z	relative intensity	assigned
56.0495	1	C3H6N+
57.0573	3	C3H7N+
65.0386	1	C5H5+
80.0494	8	C5H6N+
92.0495	28	C6H6N+
93.0573	2	C6H7N+
94.0652	2	C6H8N+
105.07	9	C8H9+
108.0444	208	C6H6NO+
109.0522	8	C6H7NO+
110.06	7	C6H8NO+
120.0445	1	C7H6NO+
120.0808	8	C8H10N+
122.06	3	C7H8NO+
122.0964	4	C8H12N+
132.0808	4	C9H10N+
133.0647	8	C9H9O+
150.0913	999	C9H12NO+
