Mass spectrum: UK-156819; LC-ESI-QFT; MS2; CE: 75; R=17500; [M-H]-
Name: UK-156819
Name: 5-(2-Methyl-3-(pyridin-3-yl)-1H-indol-1-yl)pentanoic acid
Name: 5-(2-methyl-3-pyridin-3-ylindol-1-yl)pentanoic acid
Formula: C19H20N2O2
Exact mass: 308.1525
SMILES: CC1=C(C2=C(C=CC=C2)N1CCCCC(O)=O)C1=CN=CC=C1
InChI: InChI=1S/C19H20N2O2/c1-14-19(15-7-6-11-20-13-15)16-8-2-3-9-17(16)21(14)12-5-4-10-18(22)23/h2-3,6-9,11,13H,4-5,10,12H2,1H3,(H,22,23)
Instrument: Q Exactive Orbitrap (Thermo Scientific)
Instrument type: LC-ESI-QFT
Ms type: MS2
Ion mode: NEGATIVE
Ionization: ESI
Fragmentation mode: HCD
Collision energy: 75
Resolution: 17500
Column name: Acquity BEH C18 1.7um, 2.1x150mm (Waters)
Retention time: 14.642 min
Base peak: 307.1452
Precursor m/z: 307.1452
Precursor type: [M-H]-
Precursor intensity: 8182876.506348
m/z	relative intensity	assigned
129.0585	2	C9H7N-
130.0662	59	C9H8N-
153.0583	3	C11H7N-
154.0663	1	C11H8N-
161.0483	4	C9H7NO2-
166.0662	4	C12H8N-
179.074	2	C13H9N-
180.082	11	C13H10N-
191.0616	18	C13H7N2-
192.0696	1	C13H8N2-
204.0694	12	C14H8N2-
205.0773	222	C14H9N2-
206.0852	5	C14H10N2-
207.0928	999	C14H11N2-
211.0639	1	C13H9NO2-
217.0769	1	C15H9N2-
219.0923	2	C15H11N2-
238.0745	3	C14H10N2O2-
