Mass spectrum: N-(2,4-Dimethylphenyl)formamide; LC-ESI-QFT; MS2; CE: 75; R=17500; [M+H]+
Name: N-(2,4-Dimethylphenyl)formamide
Formula: C9H11NO
Exact mass: 149.0841
SMILES: CC1=CC=C(NC=O)C(C)=C1
InChI: InChI=1S/C9H11NO/c1-7-3-4-9(10-6-11)8(2)5-7/h3-6H,1-2H3,(H,10,11)
Instrument: Q Exactive Orbitrap (Thermo Scientific)
Instrument type: LC-ESI-QFT
Ms type: MS2
Ion mode: POSITIVE
Ionization: ESI
Fragmentation mode: HCD
Collision energy: 75
Resolution: 17500
Column name: Acquity BEH C18 1.7um, 2.1x150mm (Waters)
Retention time: 14.859 min
Base peak: 79.0212
Precursor m/z: 150.0913
Precursor type: [M+H]+
Precursor intensity: 8498204.125
m/z	relative intensity	assigned
50.0151	1	C4H2+
53.0386	8	C4H5+
65.0384	6	C5H5+
66.0464	11	C5H6+
67.0542	2	C5H7+
68.0497	1	C4H6N+
77.0383	6	C6H5+
78.0463	3	C6H6+
79.0542	83	C6H7+
80.0495	11	C5H6N+
81.0573	4	C5H7N+
81.0699	9	C6H9+
91.0542	11	C7H7+
92.0494	8	C6H6N+
93.0573	3	C6H7N+
93.07	12	C7H9+
94.0652	5	C6H8N+
95.0492	22	C6H7O+
95.0855	1	C7H11+
103.0542	14	C8H7+
104.0495	2	C7H6N+
105.0574	11	C7H7N+
105.07	5	C8H9+
106.0652	260	C7H8N+
107.0729	944	C7H9N+
108.0444	10	C6H6NO+
109.0524	1	C6H7NO+
110.0599	2	C6H8NO+
117.0573	2	C8H7N+
118.0651	13	C8H8N+
120.0808	999	C8H10N+
121.0886	349	C8H11N+
122.0964	361	C8H12N+
134.06	13	C8H8NO+
135.0677	5	C8H9NO+
150.0914	116	C9H12NO+
