Mass spectrum: 4-Dimethylaminobenzaldehyde; LC-ESI-QFT; MS2; CE: 30; R=17500; [M+H]+
Name: 4-Dimethylaminobenzaldehyde
Name: 4-(dimethylamino)benzaldehyde
Formula: C9H11NO
Exact mass: 149.0841
SMILES: CN(C)C1=CC=C(C=O)C=C1
InChI: InChI=1S/C9H11NO/c1-10(2)9-5-3-8(7-11)4-6-9/h3-7H,1-2H3
Instrument: Q Exactive Orbitrap (Thermo Scientific)
Instrument type: LC-ESI-QFT
Ms type: MS2
Ion mode: POSITIVE
Ionization: ESI
Fragmentation mode: HCD
Collision energy: 30
Resolution: 17500
Column name: Acquity BEH C18 1.7um, 2.1x150mm (Waters)
Retention time: 14.863 min
Base peak: 79.0211
Precursor m/z: 150.0913
Precursor type: [M+H]+
Precursor intensity: 12206140.375
m/z	relative intensity	assigned
79.0541	1	C6H7+
106.0653	1	C7H8N+
107.073	43	C7H9N+
108.0445	2	C6H6NO+
120.0808	34	C8H10N+
121.0887	11	C8H11N+
122.0964	223	C8H12N+
135.0676	1	C8H9NO+
150.0913	999	C9H12NO+
