Mass spectrum: Panthenol; LC-ESI-QFT; MS2; CE: 15; R=17500; [M-H]-
Name: Panthenol
Formula: C9H19NO4
Exact mass: 205.1314
SMILES: CC(C)(CO)C(O)C(=O)NCCCO
InChI: InChI=1S/C9H19NO4/c1-9(2,6-12)7(13)8(14)10-4-3-5-11/h7,11-13H,3-6H2,1-2H3,(H,10,14)
Instrument: Q Exactive Orbitrap (Thermo Scientific)
Instrument type: LC-ESI-QFT
Ms type: MS2
Ion mode: NEGATIVE
Ionization: ESI
Fragmentation mode: HCD
Collision energy: 15
Resolution: 17500
Column name: Acquity BEH C18 1.7um, 2.1x150mm (Waters)
Retention time: 8.174 min
Base peak: 204.1241
Precursor m/z: 204.1241
Precursor type: [M-H]-
Precursor intensity: 3192252.078369
m/z	relative intensity	assigned
71.0503	252	C4H7O-
72.0455	24	C3H6NO-
74.0612	72	C3H8NO-
99.0452	66	C5H7O2-
100.0405	7	C4H6NO2-
102.0561	418	C4H8NO2-
108.0816	1	C7H10N-
118.051	3	C4H8NO3-
126.0924	31	C7H12NO-
129.0558	42	C6H9O3-
130.0509	20	C5H8NO3-
132.0668	2	C5H10NO3-
146.0821	8	C6H12NO3-
156.103	32	C8H14NO2-
172.098	4	C8H14NO3-
174.1138	11	C8H16NO3-
204.1241	999	C9H18NO4-
