Mass spectrum: dl-Norgestrel; LC-ESI-QFT; MS2; CE: 45; R=17500; [M+H]+
Name: dl-Norgestrel
Name: (8R,9S,10R,13S,14S)-13-ethyl-17-ethynyl-17-hydroxy-1,2,6,7,8,9,10,11,12,14,15,16-dodecahydrocyclopenta[a]phenanthren-3-one
Formula: C21H28O2
Exact mass: 312.2089
SMILES: CC[C@]12CC[C@H]3[C@@H](CCC4=CC(=O)CC[C@H]34)[C@@H]1CCC2(O)C#C
InChI: InChI=1S/C21H28O2/c1-3-20-11-9-17-16-8-6-15(22)13-14(16)5-7-18(17)19(20)10-12-21(20,23)4-2/h2,13,16-19,23H,3,5-12H2,1H3/t16-,17+,18+,19-,20-,21?/m0/s1
Instrument: Q Exactive Orbitrap (Thermo Scientific)
Instrument type: LC-ESI-QFT
Ms type: MS2
Ion mode: POSITIVE
Ionization: ESI
Fragmentation mode: HCD
Collision energy: 45
Resolution: 17500
Column name: Acquity BEH C18 1.7um, 2.1x150mm (Waters)
Retention time: 17.932 min
Base peak: 79.0211
Precursor m/z: 313.2162
Precursor type: [M+H]+
Precursor intensity: 10235208.0625
m/z	relative intensity	assigned
53.0021	6	C3HO+
53.0386	12	C4H5+
55.0178	34	C3H3O+
55.0543	58	C4H7+
57.0335	37	C3H5O+
57.0698	11	C4H9+
65.0386	10	C5H5+
67.0542	170	C5H7+
69.0334	12	C4H5O+
69.0698	42	C5H9+
71.0491	5	C4H7O+
77.0385	5	C6H5+
79.0542	219	C6H7+
81.0335	30	C5H5O+
81.0699	260	C6H9+
83.0492	437	C5H7O+
85.0648	5	C5H9O+
91.0543	317	C7H7+
93.0699	278	C7H9+
95.0492	44	C6H7O+
95.0856	216	C7H11+
97.0648	48	C6H9O+
97.1013	8	C7H13+
103.0543	16	C8H7+
105.07	322	C8H9+
107.0492	220	C7H7O+
107.0856	196	C8H11+
109.0648	999	C7H9O+
109.1012	120	C8H13+
111.0805	15	C7H11O+
115.0541	24	C9H7+
116.062	14	C9H8+
117.0699	224	C9H9+
119.0856	284	C9H11+
121.0649	67	C8H9O+
121.1012	113	C9H13+
123.0805	164	C8H11O+
123.1168	125	C9H15+
125.0961	43	C8H13O+
128.0619	25	C10H8+
129.0699	185	C10H9+
130.0778	23	C10H10+
131.0856	360	C10H11+
132.0934	3	C10H12+
133.0648	52	C9H9O+
133.1012	324	C10H13+
135.0805	326	C9H11O+
135.1168	120	C10H15+
137.0962	32	C9H13O+
137.1325	42	C10H17+
141.0699	55	C11H9+
142.0776	32	C11H10+
143.0856	217	C11H11+
144.0936	19	C11H12+
145.0652	16	C10H9O+
145.1012	301	C11H13+
147.0805	57	C10H11O+
147.1168	103	C11H15+
148.0883	5	C10H12O+
149.0962	174	C10H13O+
149.1325	43	C11H17+
151.1117	19	C10H15O+
153.0698	7	C12H9+
154.0779	9	C12H10+
155.0855	89	C12H11+
156.0935	23	C12H12+
157.0649	16	C11H9O+
157.1013	225	C12H13+
158.1091	5	C12H14+
159.0805	65	C11H11O+
159.1169	215	C12H15+
161.0961	139	C11H13O+
161.1326	42	C12H17+
162.1039	5	C11H14O+
163.1117	97	C11H15O+
163.1481	8	C12H19+
165.0701	11	C13H9+
166.0779	13	C13H10+
167.0856	49	C13H11+
168.0934	18	C13H12+
169.1013	99	C13H13+
170.1091	19	C13H14+
171.0805	8	C12H11O+
171.1168	165	C13H15+
172.1247	6	C13H16+
173.096	22	C12H13O+
173.1326	80	C13H17+
175.1118	78	C12H15O+
175.1482	74	C13H19+
177.1276	13	C12H17O+
178.0777	8	C14H10+
179.0858	24	C14H11+
180.0932	14	C14H12+
181.1012	64	C14H13+
182.1086	7	C14H14+
183.1169	111	C14H15+
184.1246	6	C14H16+
185.0963	32	C13H13O+
185.1326	193	C14H17+
187.1118	40	C13H15O+
187.1482	100	C14H19+
188.12	19	C13H16O+
189.1274	63	C13H17O+
189.1641	3	C14H21+
191.1429	6	C13H19O+
192.0936	10	C15H12+
193.1013	37	C15H13+
194.1091	9	C15H14+
195.117	51	C15H15+
196.1251	11	C15H16+
197.0961	13	C14H13O+
197.1325	73	C15H17+
198.1405	7	C15H18+
199.1121	17	C14H15O+
199.1482	75	C15H19+
201.1275	34	C14H17O+
201.1636	18	C15H21+
203.1429	18	C14H19O+
203.1797	9	C15H23+
205.1017	14	C16H13+
206.109	9	C16H14+
207.1172	37	C16H15+
208.125	16	C16H16+
209.1326	43	C16H17+
210.1401	10	C16H18+
211.1117	16	C15H15O+
211.1481	29	C16H19+
213.1274	23	C15H17O+
213.1637	12	C16H21+
215.1432	13	C15H19O+
215.1796	8	C16H23+
219.1172	5	C17H15+
220.1249	12	C17H16+
221.1328	39	C17H17+
222.1402	10	C17H18+
223.1482	21	C17H19+
225.1268	16	C16H17O+
225.1636	50	C17H21+
227.1436	8	C16H19O+
227.1794	132	C17H23+
229.1589	6	C16H21O+
233.1323	10	C18H17+
234.14	4	C18H18+
235.1483	31	C18H19+
236.1563	5	C18H20+
237.1641	50	C18H21+
238.1355	9	C17H18O+
239.1431	12	C17H19O+
239.179	4	C18H23+
241.1588	8	C17H21O+
243.1751	8	C17H23O+
245.1901	276	C17H25O+
247.1483	5	C19H19+
248.1561	22	C19H20+
249.1637	17	C19H21+
251.1428	3	C18H19O+
251.1793	11	C19H23+
253.1589	9	C18H21O+
253.1957	12	C19H25+
255.174	7	C18H23O+
262.1729	4	C20H22+
266.1668	15	C19H22O+
267.1748	14	C19H23O+
267.212	4	C20H27+
277.1948	17	C21H25+
284.1778	4	C19H24O2+
295.2062	30	C21H27O+
313.2163	51	C21H29O2+
