Mass spectrum: Methyl 1-naphthaleneacetate; LC-ESI-QFT; MS2; CE: 60; R=17500; [M-H]-
Name: Methyl 1-naphthaleneacetate
Name: methyl 2-naphthalen-1-ylacetate
Formula: C13H12O2
Exact mass: 200.0837
SMILES: COC(=O)CC1=C2C=CC=CC2=CC=C1
InChI: InChI=1S/C13H12O2/c1-15-13(14)9-11-7-4-6-10-5-2-3-8-12(10)11/h2-8H,9H2,1H3
Instrument: Q Exactive Orbitrap (Thermo Scientific)
Instrument type: LC-ESI-QFT
Ms type: MS2
Ion mode: NEGATIVE
Ionization: ESI
Fragmentation mode: HCD
Collision energy: 60
Resolution: 17500
Column name: Acquity BEH C18 1.7um, 2.1x150mm (Waters)
Retention time: 16.746 min
Base peak: 127.0068
Precursor m/z: 199.0765
Precursor type: [M-H]-
Precursor intensity: 41439897.36328
m/z	relative intensity	assigned
65.0397	2	C5H5-
93.0346	999	C6H5O-
199.0763	1	C13H11O2-
