Mass spectrum: Diisopropyl phthalate; LC-ESI-QFT; MS2; CE: 15; R=17500; [M-H]-
Name: Diisopropyl phthalate
Name: dipropan-2-yl benzene-1,2-dicarboxylate
Formula: C14H18O4
Exact mass: 250.1205
SMILES: CC(C)OC(=O)C1=CC=CC=C1C(=O)OC(C)C
InChI: InChI=1S/C14H18O4/c1-9(2)17-13(15)11-7-5-6-8-12(11)14(16)18-10(3)4/h5-10H,1-4H3
Instrument: Q Exactive Orbitrap (Thermo Scientific)
Instrument type: LC-ESI-QFT
Ms type: MS2
Ion mode: NEGATIVE
Ionization: ESI
Fragmentation mode: HCD
Collision energy: 15
Resolution: 17500
Column name: Acquity BEH C18 1.7um, 2.1x150mm (Waters)
Retention time: 16.952 min
Base peak: 112.9857
Precursor m/z: 249.1132
Precursor type: [M-H]-
Precursor intensity: 4643615.563477
m/z	relative intensity	assigned
59.0138	87	C2H3O2-
149.0972	38	C10H13O-
161.0973	1	C11H13O-
165.0559	3	C9H9O3-
177.1286	48	C12H17O-
205.1237	20	C13H17O2-
221.1184	999	C13H17O3-
249.1133	225	C14H17O4-
