Mass spectrum: 2-Hydroxy-3-phenoxypropyl prop-2-enoate; LC-ESI-QFT; MS2; CE: 45; R=17500; [M+H]+
Name: 2-Hydroxy-3-phenoxypropyl prop-2-enoate
Name: 2-Hydroxy-3-phenoxypropyl acrylate
Name: (2-hydroxy-3-phenoxypropyl) prop-2-enoate
Formula: C12H14O4
Exact mass: 222.0892
SMILES: OC(COC(=O)C=C)COC1=CC=CC=C1
InChI: InChI=1S/C12H14O4/c1-2-12(14)16-9-10(13)8-15-11-6-4-3-5-7-11/h2-7,10,13H,1,8-9H2
Instrument: Q Exactive Orbitrap (Thermo Scientific)
Instrument type: LC-ESI-QFT
Ms type: MS2
Ion mode: POSITIVE
Ionization: ESI
Fragmentation mode: HCD
Collision energy: 45
Resolution: 17500
Column name: Acquity BEH C18 1.7um, 2.1x150mm (Waters)
Retention time: 16.637 min
Base peak: 79.0211
Precursor m/z: 223.0965
Precursor type: [M+H]+
Precursor intensity: 990048.25
m/z	relative intensity	assigned
69.0699	512	C5H9+
92.0262	536	C6H4O+
126.0105	999	C9H2O+
