Mass spectrum: Panthenol; LC-ESI-QFT; MS2; CE: 45; R=17500; [M+H]+
Name: Panthenol
Formula: C9H19NO4
Exact mass: 205.1314
SMILES: CC(C)(CO)C(O)C(=O)NCCCO
InChI: InChI=1S/C9H19NO4/c1-9(2,6-12)7(13)8(14)10-4-3-5-11/h7,11-13H,3-6H2,1-2H3,(H,10,14)
Instrument: Q Exactive Orbitrap (Thermo Scientific)
Instrument type: LC-ESI-QFT
Ms type: MS2
Ion mode: POSITIVE
Ionization: ESI
Fragmentation mode: HCD
Collision energy: 45
Resolution: 17500
Column name: Acquity BEH C18 1.7um, 2.1x150mm (Waters)
Retention time: 10.001 min
Base peak: 79.0211
Precursor m/z: 206.1387
Precursor type: [M+H]+
Precursor intensity: 34452431.03125
m/z	relative intensity	assigned
77.0383	1	C6H5+
79.0543	3	C6H7+
103.0542	5	C8H7+
105.0699	999	C8H9+
120.0808	2	C8H10N+
122.0964	30	C8H12N+
130.065	22	C9H8N+
189.1135	168	C9H17O4+
206.1401	422	C9H20NO4+
