Mass spectrum: o-Toluenesulfonamide; LC-ESI-QFT; MS2; CE: 75; R=17500; [M-H]-
Name: o-Toluenesulfonamide
Name: 2-methylbenzenesulfonamide
Formula: C7H9NO2S
Exact mass: 171.0354
SMILES: CC1=C(C=CC=C1)S(N)(=O)=O
InChI: InChI=1S/C7H9NO2S/c1-6-4-2-3-5-7(6)11(8,9)10/h2-5H,1H3,(H2,8,9,10)
Instrument: Q Exactive Orbitrap (Thermo Scientific)
Instrument type: LC-ESI-QFT
Ms type: MS2
Ion mode: NEGATIVE
Ionization: ESI
Fragmentation mode: HCD
Collision energy: 75
Resolution: 17500
Column name: Acquity BEH C18 1.7um, 2.1x150mm (Waters)
Retention time: 16.168 min
Base peak: 310.1232
Precursor m/z: 170.0281
Precursor type: [M-H]-
Precursor intensity: 338266.0703125
m/z	relative intensity	assigned
61.9706	557	NOS-
63.9624	297	O2S-
76.0192	44	C5H2N-
77.9656	204	NO2S-
78.9734	878	HNO2S-
79.9812	818	H2NO2S-
106.0662	999	C7H8N-
107.0501	84	C7H7O-
122.0611	118	C7H8NO-
132.0092	46	C7H2NO2-
170.0279	65	C7H8NO2S-
