Mass spectrum: dl-Norgestrel; LC-ESI-QFT; MS2; CE: 90; R=17500; [M+H]+
Name: dl-Norgestrel
Name: (8R,9S,10R,13S,14S)-13-ethyl-17-ethynyl-17-hydroxy-1,2,6,7,8,9,10,11,12,14,15,16-dodecahydrocyclopenta[a]phenanthren-3-one
Formula: C21H28O2
Exact mass: 312.2089
SMILES: CC[C@]12CC[C@H]3[C@@H](CCC4=CC(=O)CC[C@H]34)[C@@H]1CCC2(O)C#C
InChI: InChI=1S/C21H28O2/c1-3-20-11-9-17-16-8-6-15(22)13-14(16)5-7-18(17)19(20)10-12-21(20,23)4-2/h2,13,16-19,23H,3,5-12H2,1H3/t16-,17+,18+,19-,20-,21?/m0/s1
Instrument: Q Exactive Orbitrap (Thermo Scientific)
Instrument type: LC-ESI-QFT
Ms type: MS2
Ion mode: POSITIVE
Ionization: ESI
Fragmentation mode: HCD
Collision energy: 90
Resolution: 17500
Column name: Acquity BEH C18 1.7um, 2.1x150mm (Waters)
Retention time: 17.932 min
Base peak: 79.0211
Precursor m/z: 313.2162
Precursor type: [M+H]+
Precursor intensity: 7172054.96875
m/z	relative intensity	assigned
50.0151	3	C4H2+
51.0229	3	C4H3+
53.0023	29	C3HO+
53.0386	124	C4H5+
55.0179	75	C3H3O+
55.0543	214	C4H7+
57.0335	11	C3H5O+
57.0699	7	C4H9+
65.0386	105	C5H5+
67.0542	297	C5H7+
69.0335	17	C4H5O+
69.07	20	C5H9+
77.0385	27	C6H5+
78.0464	8	C6H6+
79.0542	704	C6H7+
80.062	4	C6H8+
81.0335	34	C5H5O+
81.0699	454	C6H9+
83.0491	370	C5H7O+
91.0542	999	C7H7+
92.0622	6	C7H8+
93.0699	210	C7H9+
94.0414	21	C6H6O+
95.0491	210	C6H7O+
95.0855	70	C7H11+
97.0649	11	C6H9O+
103.0542	91	C8H7+
104.062	23	C8H8+
105.0699	360	C8H9+
107.0491	166	C7H7O+
107.0855	61	C8H11+
109.0648	353	C7H9O+
115.0542	238	C9H7+
116.0621	85	C9H8+
117.0699	233	C9H9+
118.0777	11	C9H10+
119.0856	100	C9H11+
121.0648	13	C8H9O+
121.1014	9	C9H13+
123.0803	21	C8H11O+
123.1171	4	C9H15+
128.0621	269	C10H8+
129.0698	230	C10H9+
130.0778	50	C10H10+
131.0856	94	C10H11+
132.0571	5	C9H8O+
133.0648	29	C9H9O+
133.1012	30	C10H13+
135.0805	53	C9H11O+
141.0698	142	C11H9+
142.0777	91	C11H10+
143.0855	81	C11H11+
144.057	9	C10H8O+
144.0935	9	C11H12+
145.0648	28	C10H9O+
145.1011	36	C11H13+
146.0728	6	C10H10O+
147.0806	11	C10H11O+
149.0961	10	C10H13O+
152.0619	17	C12H8+
153.0699	57	C12H9+
154.0777	34	C12H10+
155.0855	61	C12H11+
156.0935	24	C12H12+
157.0645	5	C11H9O+
157.1012	27	C12H13+
159.0805	12	C11H11O+
159.1166	8	C12H15+
160.0885	4	C11H12O+
161.0961	18	C11H13O+
165.0699	62	C13H9+
166.0778	25	C13H10+
167.0855	41	C13H11+
168.0934	12	C13H12+
169.1014	20	C13H13+
171.1168	10	C13H15+
178.0777	30	C14H10+
179.0856	27	C14H11+
180.0932	6	C14H12+
181.101	15	C14H13+
183.1168	9	C14H15+
187.1127	5	C13H15O+
191.0859	21	C15H11+
192.0935	6	C15H12+
193.1013	8	C15H13+
195.1166	4	C15H15+
205.1011	6	C16H13+
