Mass spectrum: Azacyclotridecan-2-one; LC-ESI-QFT; MS2; CE: 90; R=17500; [M+H]+
Name: Azacyclotridecan-2-one
Formula: C12H23NO
Exact mass: 197.1780
SMILES: O=C1CCCCCCCCCCCN1
InChI: InChI=1S/C12H23NO/c14-12-10-8-6-4-2-1-3-5-7-9-11-13-12/h1-11H2,(H,13,14)
Instrument: Q Exactive Orbitrap (Thermo Scientific)
Instrument type: LC-ESI-QFT
Ms type: MS2
Ion mode: POSITIVE
Ionization: ESI
Fragmentation mode: HCD
Collision energy: 90
Resolution: 17500
Column name: Acquity BEH C18 1.7um, 2.1x150mm (Waters)
Retention time: 18.525 min
Base peak: 79.0211
Precursor m/z: 198.1852
Precursor type: [M+H]+
Precursor intensity: 43007639.75
m/z	relative intensity	assigned
53.0022	87	C3HO+
53.0386	36	C4H5+
53.9975	14	C2NO+
54.0101	2	C3H2O+
55.0179	122	C3H3O+
55.0543	999	C4H7+
56.0495	18	C3H6N+
57.0699	293	C4H9+
58.0651	24	C3H8N+
60.0444	7	C2H6NO+
67.0542	108	C5H7+
68.0494	7	C4H6N+
69.0699	388	C5H9+
70.0651	18	C4H8N+
71.0492	4	C4H7O+
71.0855	24	C5H11+
72.0444	38	C3H6NO+
72.0808	38	C4H10N+
74.0601	2	C3H8NO+
79.0542	138	C6H7+
81.0699	84	C6H9+
82.0651	49	C5H8N+
83.0492	19	C5H7O+
83.0855	93	C6H11+
84.0807	9	C5H10N+
85.1013	2	C6H13+
86.06	31	C4H8NO+
86.0964	15	C5H12N+
88.0759	3	C4H10NO+
91.0543	52	C7H7+
93.0574	11	C6H7N+
93.0699	51	C7H9+
95.0855	38	C7H11+
96.0808	34	C6H10N+
97.0649	22	C6H9O+
97.1012	17	C7H13+
98.0964	2	C6H12N+
100.0757	12	C5H10NO+
100.1122	5	C6H14N+
105.0699	12	C8H9+
106.0651	14	C7H8N+
107.0856	10	C8H11+
110.0966	6	C7H12N+
111.0805	5	C7H11O+
114.0914	2	C6H12NO+
114.1277	1	C7H16N+
120.0809	3	C8H10N+
121.1012	3	C9H13+
124.1123	4	C8H14N+
125.0962	1	C8H13O+
156.1747	1	C10H22N+
198.1855	10	C12H24NO+
