Mass spectrum: 2-Naphthalenol; LC-ESI-QFT; MS2; CE: 30; R=17500; [M-H]-
Name: 2-Naphthalenol
Name: 2-Naphthol
Name: naphthalen-2-ol
Formula: C10H8O
Exact mass: 144.0575
SMILES: OC1=CC2=C(C=CC=C2)C=C1
InChI: InChI=1S/C10H8O/c11-10-6-5-8-3-1-2-4-9(8)7-10/h1-7,11H
Instrument: Q Exactive Orbitrap (Thermo Scientific)
Instrument type: LC-ESI-QFT
Ms type: MS2
Ion mode: NEGATIVE
Ionization: ESI
Fragmentation mode: HCD
Collision energy: 30
Resolution: 17500
Column name: Acquity BEH C18 1.7um, 2.1x150mm (Waters)
Retention time: 17.597 min
Base peak: 193.0869
Precursor m/z: 143.0502
Precursor type: [M-H]-
Precursor intensity: 2130743.584961
m/z	relative intensity	assigned
115.0553	47	C9H7-
143.0502	999	C10H7O-
