Mass spectrum: dl-Norgestrel; LC-ESI-QFT; MS2; CE: 60; R=17500; [M+H]+
Name: dl-Norgestrel
Name: (8R,9S,10R,13S,14S)-13-ethyl-17-ethynyl-17-hydroxy-1,2,6,7,8,9,10,11,12,14,15,16-dodecahydrocyclopenta[a]phenanthren-3-one
Formula: C21H28O2
Exact mass: 312.2089
SMILES: CC[C@]12CC[C@H]3[C@@H](CCC4=CC(=O)CC[C@H]34)[C@@H]1CCC2(O)C#C
InChI: InChI=1S/C21H28O2/c1-3-20-11-9-17-16-8-6-15(22)13-14(16)5-7-18(17)19(20)10-12-21(20,23)4-2/h2,13,16-19,23H,3,5-12H2,1H3/t16-,17+,18+,19-,20-,21?/m0/s1
Instrument: Q Exactive Orbitrap (Thermo Scientific)
Instrument type: LC-ESI-QFT
Ms type: MS2
Ion mode: POSITIVE
Ionization: ESI
Fragmentation mode: HCD
Collision energy: 60
Resolution: 17500
Column name: Acquity BEH C18 1.7um, 2.1x150mm (Waters)
Retention time: 17.932 min
Base peak: 79.0211
Precursor m/z: 313.2162
Precursor type: [M+H]+
Precursor intensity: 7609924.6875
m/z	relative intensity	assigned
51.0231	3	C4H3+
53.0023	11	C3HO+
53.0386	33	C4H5+
55.0179	48	C3H3O+
55.0543	104	C4H7+
57.0335	21	C3H5O+
57.0699	15	C4H9+
65.0385	20	C5H5+
67.0542	287	C5H7+
69.0335	11	C4H5O+
69.0699	54	C5H9+
71.049	3	C4H7O+
77.0385	5	C6H5+
79.0542	431	C6H7+
81.0336	34	C5H5O+
81.0699	418	C6H9+
83.0492	486	C5H7O+
91.0543	638	C7H7+
93.0699	380	C7H9+
94.0416	4	C6H6O+
95.0492	89	C6H7O+
95.0856	192	C7H11+
97.0648	38	C6H9O+
97.1011	4	C7H13+
103.0543	42	C8H7+
104.0621	11	C8H8+
105.0699	449	C8H9+
107.0492	232	C7H7O+
107.0856	193	C8H11+
109.0649	999	C7H9O+
109.1012	66	C8H13+
111.0805	10	C7H11O+
115.0543	74	C9H7+
116.062	43	C9H8+
117.0699	302	C9H9+
119.0856	284	C9H11+
121.0648	52	C8H9O+
121.1012	69	C9H13+
123.0804	100	C8H11O+
123.1169	89	C9H15+
125.0962	11	C8H13O+
128.0621	96	C10H8+
129.0699	260	C10H9+
130.0778	46	C10H10+
131.0856	347	C10H11+
132.0571	3	C9H8O+
132.0935	6	C10H12+
133.0649	52	C9H9O+
133.1012	208	C10H13+
135.0805	263	C9H11O+
135.1169	71	C10H15+
137.0962	12	C9H13O+
137.1325	11	C10H17+
141.07	89	C11H9+
142.0778	86	C11H10+
143.0856	224	C11H11+
144.0568	4	C10H8O+
144.0936	26	C11H12+
145.0647	21	C10H9O+
145.1012	202	C11H13+
146.0724	6	C10H10O+
147.0805	46	C10H11O+
147.1168	44	C11H15+
148.0885	5	C10H12O+
149.0961	93	C10H13O+
149.1325	16	C11H17+
152.062	6	C12H8+
153.0697	19	C12H9+
154.0776	20	C12H10+
155.0856	99	C12H11+
156.0936	41	C12H12+
157.0647	9	C11H9O+
157.1012	167	C12H13+
158.1091	9	C12H14+
159.0805	35	C11H11O+
159.1168	90	C12H15+
160.088	3	C11H12O+
161.0961	93	C11H13O+
161.1325	21	C12H17+
162.1037	7	C11H14O+
163.1118	32	C11H15O+
165.0699	27	C13H9+
166.0779	18	C13H10+
167.0857	47	C13H11+
168.0934	28	C13H12+
169.1012	79	C13H13+
170.109	17	C13H14+
171.0803	6	C12H11O+
171.1169	99	C13H15+
172.1252	6	C13H16+
173.0962	14	C12H13O+
173.1324	28	C13H17+
175.1118	49	C12H15O+
175.1482	35	C13H19+
177.1276	3	C12H17O+
178.0776	14	C14H10+
179.0857	29	C14H11+
180.0933	19	C14H12+
181.1012	46	C14H13+
182.1088	15	C14H14+
183.117	54	C14H15+
184.1246	7	C14H16+
185.096	9	C13H13O+
185.1325	70	C14H17+
186.1399	4	C14H18+
187.1116	10	C13H15O+
187.1482	31	C14H19+
188.1198	20	C13H16O+
189.1273	26	C13H17O+
191.0854	9	C15H11+
192.0933	13	C15H12+
193.1015	31	C15H13+
194.109	10	C15H14+
195.1169	34	C15H15+
196.1243	8	C15H16+
197.0969	4	C14H13O+
197.1323	23	C15H17+
198.1409	5	C15H18+
199.1115	5	C14H15O+
199.1482	19	C15H19+
201.1274	13	C14H17O+
201.1637	11	C15H21+
203.143	4	C14H19O+
205.1015	13	C16H13+
206.1091	12	C16H14+
207.117	31	C16H15+
208.1247	12	C16H16+
209.1331	18	C16H17+
211.1118	8	C15H15O+
211.148	6	C16H19+
213.1275	5	C15H17O+
219.1167	8	C17H15+
220.1248	5	C17H16+
221.1327	13	C17H17+
222.1405	5	C17H18+
223.1481	5	C17H19+
225.1636	8	C17H21+
227.1794	24	C17H23+
233.1328	8	C18H17+
235.1484	4	C18H19+
237.1635	4	C18H21+
245.1903	25	C17H25O+
247.1491	6	C19H19+
248.1565	7	C19H20+
251.144	4	C18H19O+
