Mass spectrum: 4,6-Di-tert-butyl-m-cresol; LC-ESI-QFT; MS2; CE: 30; R=17500; [M-H]-
Name: 4,6-Di-tert-butyl-m-cresol
Name: 2,4-ditert-butyl-5-methylphenol
Formula: C15H24O
Exact mass: 220.1827
SMILES: CC1=C(C=C(C(O)=C1)C(C)(C)C)C(C)(C)C
InChI: InChI=1S/C15H24O/c1-10-8-13(16)12(15(5,6)7)9-11(10)14(2,3)4/h8-9,16H,1-7H3
Instrument: Q Exactive Orbitrap (Thermo Scientific)
Instrument type: LC-ESI-QFT
Ms type: MS2
Ion mode: NEGATIVE
Ionization: ESI
Fragmentation mode: HCD
Collision energy: 30
Resolution: 17500
Column name: Acquity BEH C18 1.7um, 2.1x150mm (Waters)
Retention time: 20.008 min
Base peak: 112.9857
Precursor m/z: 219.1754
Precursor type: [M-H]-
Precursor intensity: 395414.6533203
m/z	relative intensity	assigned
219.1755	999	C15H23O-
