Mass spectrum: 3-Methylbenzoic acid; LC-ESI-QFT; MS2; CE: 60; R=17500; [M-H]-
Name: 3-Methylbenzoic acid
Name: M-Toluic acid
Formula: C8H8O2
Exact mass: 136.0524
SMILES: CC1=CC=CC(=C1)C(O)=O
InChI: InChI=1S/C8H8O2/c1-6-3-2-4-7(5-6)8(9)10/h2-5H,1H3,(H,9,10)
Instrument: Q Exactive Orbitrap (Thermo Scientific)
Instrument type: LC-ESI-QFT
Ms type: MS2
Ion mode: NEGATIVE
Ionization: ESI
Fragmentation mode: HCD
Collision energy: 60
Resolution: 17500
Column name: Acquity BEH C18 1.7um, 2.1x150mm (Waters)
Retention time: 15.784 min
Base peak: 112.9857
Precursor m/z: 135.0452
Precursor type: [M-H]-
Precursor intensity: 446216.1623535
m/z	relative intensity	assigned
91.0552	999	C7H7-
135.0454	857	C8H7O2-
