Mass spectrum: Prometon; LC-ESI-QFT; MS2; CE: 30; R=17500; [M+H]+
Name: Prometon
Name: 6-methoxy-2-N,4-N-di(propan-2-yl)-1,3,5-triazine-2,4-diamine
Formula: C10H19N5O
Exact mass: 225.1590
SMILES: COC1=NC(NC(C)C)=NC(NC(C)C)=N1
InChI: InChI=1S/C10H19N5O/c1-6(2)11-8-13-9(12-7(3)4)15-10(14-8)16-5/h6-7H,1-5H3,(H2,11,12,13,14,15)
Instrument: Q Exactive Orbitrap (Thermo Scientific)
Instrument type: LC-ESI-QFT
Ms type: MS2
Ion mode: POSITIVE
Ionization: ESI
Fragmentation mode: HCD
Collision energy: 30
Resolution: 17500
Column name: Acquity BEH C18 1.7um, 2.1x150mm (Waters)
Retention time: 14.656 min
Base peak: 79.0211
Precursor m/z: 226.1662
Precursor type: [M+H]+
Precursor intensity: 111636801.9375
m/z	relative intensity	assigned
57.0698	1	C4H9+
86.0349	1	C2H4N3O+
96.0555	2	C4H6N3+
100.0504	4	C3H6N3O+
110.0713	1	C5H8N3+
114.0661	2	C4H8N3O+
142.0723	36	C4H8N5O+
152.1182	5	C8H14N3+
170.1035	158	C6H12N5O+
184.1193	150	C7H14N5O+
226.1661	999	C10H20N5O+
