Mass spectrum: Phenacetin; LC-ESI-QFT; MS2; CE: 15; R=17500; [M+H]+
Name: Phenacetin
Name: N-(4-ethoxyphenyl)acetamide
Formula: C10H13NO2
Exact mass: 179.0946
SMILES: CCOC1=CC=C(NC(C)=O)C=C1
InChI: InChI=1S/C10H13NO2/c1-3-13-10-6-4-9(5-7-10)11-8(2)12/h4-7H,3H2,1-2H3,(H,11,12)
Instrument: Q Exactive Orbitrap (Thermo Scientific)
Instrument type: LC-ESI-QFT
Ms type: MS2
Ion mode: POSITIVE
Ionization: ESI
Fragmentation mode: HCD
Collision energy: 15
Resolution: 17500
Column name: Acquity BEH C18 1.7um, 2.1x150mm (Waters)
Retention time: 14.216 min
Base peak: 79.0212
Precursor m/z: 180.1019
Precursor type: [M+H]+
Precursor intensity: 19361361.84375
m/z	relative intensity	assigned
93.0575	1	C6H7N+
109.0522	2	C6H7NO+
110.06	57	C6H8NO+
111.0441	2	C6H7O2+
137.0836	1	C8H11NO+
138.0913	190	C8H12NO+
139.0755	2	C8H11O2+
152.0706	28	C8H10NO2+
162.0914	9	C10H12NO+
180.1018	999	C10H14NO2+
