Mass spectrum: Hexadecanoic acid; LC-ESI-QFT; MS2; CE: 60; R=17500; [M-H]-
Name: Hexadecanoic acid
Name: Palmitic acid
Formula: C16H32O2
Exact mass: 256.2402
SMILES: CCCCCCCCCCCCCCCC(O)=O
InChI: InChI=1S/C16H32O2/c1-2-3-4-5-6-7-8-9-10-11-12-13-14-15-16(17)18/h2-15H2,1H3,(H,17,18)
Instrument: Q Exactive Orbitrap (Thermo Scientific)
Instrument type: LC-ESI-QFT
Ms type: MS2
Ion mode: NEGATIVE
Ionization: ESI
Fragmentation mode: HCD
Collision energy: 60
Resolution: 17500
Column name: Acquity BEH C18 1.7um, 2.1x150mm (Waters)
Retention time: 21.568 min
Base peak: 112.9856
Precursor m/z: 255.233
Precursor type: [M-H]-
Precursor intensity: 959452.3789062
m/z	relative intensity	assigned
255.233	999	C16H31O2-
