Mass spectrum: Dinoseb; LC-ESI-QFT; MS2; CE: 60; R=17500; [M-H]-
Name: Dinoseb
Name: 2-butan-2-yl-4,6-dinitrophenol
Formula: C10H12N2O5
Exact mass: 240.0746
SMILES: CCC(C)C1=CC(=CC(=C1O)[N+]([O-])=O)[N+]([O-])=O
InChI: InChI=1S/C10H12N2O5/c1-3-6(2)8-4-7(11(14)15)5-9(10(8)13)12(16)17/h4-6,13H,3H2,1-2H3
Instrument: Q Exactive Orbitrap (Thermo Scientific)
Instrument type: LC-ESI-QFT
Ms type: MS2
Ion mode: NEGATIVE
Ionization: ESI
Fragmentation mode: HCD
Collision energy: 60
Resolution: 17500
Column name: Acquity BEH C18 1.7um, 2.1x150mm (Waters)
Retention time: 18.846 min
Base peak: 239.0673
Precursor m/z: 239.0673
Precursor type: [M-H]-
Precursor intensity: 96664334.03711
m/z	relative intensity	assigned
55.0189	2	C3H3O-
65.0397	2	C5H5-
65.9985	2	C3NO-
67.019	1	C4H3O-
80.0268	2	C5H4O-
81.0346	2	C5H5O-
81.071	2	C6H9-
91.0553	14	C7H7-
93.0346	1	C6H5O-
95.0138	1	C5H3O2-
95.0502	1	C6H7O-
107.0502	2	C7H7O-
107.0866	31	C8H11-
108.0216	1	C6H4O2-
109.0295	3	C6H5O2-
121.0296	1	C7H5O2-
123.0089	5	C6H3O3-
123.0325	33	C6H5NO2-
123.0454	2	C7H7O2-
134.0249	1	C7H4NO2-
135.0451	8	C8H7O2-
135.0816	2	C9H11O-
136.053	13	C8H8O2-
139.0276	1	C6H5NO3-
147.045	2	C9H7O2-
148.0401	3	C8H6NO2-
149.0481	11	C8H7NO2-
150.056	50	C8H8NO2-
151.0275	20	C7H5NO3-
151.0764	133	C9H11O2-
155.0223	1	C6H5NO4-
162.0197	6	C8H4NO3-
162.0687	1	C10H10O2-
163.0399	4	C9H7O3-
164.0357	7	C8H6NO3-
164.0475	4	C9H8O3-
164.0717	51	C9H10NO2-
165.0796	1	C9H11NO2-
166.0146	9	C7H4NO4-
166.051	16	C8H8NO3-
176.0353	41	C9H6NO3-
177.0432	38	C9H7NO3-
178.051	65	C9H8NO3-
179.0713	79	C10H11O3-
183.0174	2	C7H5NO5-
192.0308	1	C9H6NO4-
192.0667	11	C10H10NO3-
193.0255	13	C8H5N2O4-
193.0364	1	C9H7NO4-
193.0745	7	C10H11NO3-
194.0458	74	C9H8NO4-
206.0335	2	C9H6N2O4-
207.0411	999	C9H7N2O4-
208.0614	35	C10H10NO4-
209.0692	40	C10H11NO4-
223.0361	6	C9H7N2O5-
224.0439	20	C9H8N2O5-
239.0673	298	C10H11N2O5-
