Mass spectrum: UK-156819; LC-ESI-QFT; MS2; CE: 90; R=17500; [M-H]-
Name: UK-156819
Name: 5-(2-Methyl-3-(pyridin-3-yl)-1H-indol-1-yl)pentanoic acid
Name: 5-(2-methyl-3-pyridin-3-ylindol-1-yl)pentanoic acid
Formula: C19H20N2O2
Exact mass: 308.1525
SMILES: CC1=C(C2=C(C=CC=C2)N1CCCCC(O)=O)C1=CN=CC=C1
InChI: InChI=1S/C19H20N2O2/c1-14-19(15-7-6-11-20-13-15)16-8-2-3-9-17(16)21(14)12-5-4-10-18(22)23/h2-3,6-9,11,13H,4-5,10,12H2,1H3,(H,22,23)
Instrument: Q Exactive Orbitrap (Thermo Scientific)
Instrument type: LC-ESI-QFT
Ms type: MS2
Ion mode: NEGATIVE
Ionization: ESI
Fragmentation mode: HCD
Collision energy: 90
Resolution: 17500
Column name: Acquity BEH C18 1.7um, 2.1x150mm (Waters)
Retention time: 17.587 min
Base peak: 193.0869
Precursor m/z: 307.1452
Precursor type: [M-H]-
Precursor intensity: 42977531.56152
m/z	relative intensity	assigned
57.0345	72	C3H5O-
65.0397	10	C5H5-
66.035	1	C4H4N-
67.0554	2	C5H7-
78.0349	7	C5H4N-
80.0268	2	C5H4O-
80.0506	13	C5H6N-
82.0662	5	C5H8N-
91.0427	1	C6H5N-
92.0506	999	C6H6N-
93.0346	9	C6H5O-
94.0663	1	C6H8N-
95.0502	32	C6H7O-
101.0397	3	C8H5-
102.0349	1	C7H4N-
116.0505	10	C8H6N-
117.0346	92	C8H5O-
118.0662	3	C8H8N-
119.0505	1	C8H7O-
131.0376	90	C8H5NO-
132.0331	1	C7H4N2O-
132.0455	2	C8H6NO-
132.0817	1	C9H10N-
133.0406	1	C7H5N2O-
136.0405	1	C7H6NO2-
142.0665	4	C10H8N-
144.0454	24	C9H6NO-
154.0661	1	C11H8N-
155.0741	6	C11H9N-
156.0816	7	C11H10N-
157.0534	2	C10H7NO-
158.0975	3	C11H12N-
166.0662	9	C12H8N-
168.0819	10	C12H10N-
187.0512	1	C10H7N2O2-
193.0655	1	C14H9O-
