Mass spectrum: dl-Norgestrel; LC-ESI-QFT; MS2; CE: 15; R=17500; [M+H]+
Name: dl-Norgestrel
Name: (8R,9S,10R,13S,14S)-13-ethyl-17-ethynyl-17-hydroxy-1,2,6,7,8,9,10,11,12,14,15,16-dodecahydrocyclopenta[a]phenanthren-3-one
Formula: C21H28O2
Exact mass: 312.2089
SMILES: CC[C@]12CC[C@H]3[C@@H](CCC4=CC(=O)CC[C@H]34)[C@@H]1CCC2(O)C#C
InChI: InChI=1S/C21H28O2/c1-3-20-11-9-17-16-8-6-15(22)13-14(16)5-7-18(17)19(20)10-12-21(20,23)4-2/h2,13,16-19,23H,3,5-12H2,1H3/t16-,17+,18+,19-,20-,21?/m0/s1
Instrument: Q Exactive Orbitrap (Thermo Scientific)
Instrument type: LC-ESI-QFT
Ms type: MS2
Ion mode: POSITIVE
Ionization: ESI
Fragmentation mode: HCD
Collision energy: 15
Resolution: 17500
Column name: Acquity BEH C18 1.7um, 2.1x150mm (Waters)
Retention time: 17.932 min
Base peak: 79.0211
Precursor m/z: 313.2162
Precursor type: [M+H]+
Precursor intensity: 9196883.75
m/z	relative intensity	assigned
81.0699	1	C6H9+
83.0492	2	C5H7O+
95.0855	2	C7H11+
107.0491	1	C7H7O+
107.0855	1	C8H11+
109.0647	5	C7H9O+
109.1011	1	C8H13+
119.0855	1	C9H11+
121.0648	1	C8H9O+
121.101	1	C9H13+
123.0803	2	C8H11O+
125.0962	2	C8H13O+
131.0856	2	C10H11+
133.1011	4	C10H13+
135.0805	1	C9H11O+
135.117	1	C10H15+
145.1012	3	C11H13+
147.0803	1	C10H11O+
147.1167	2	C11H15+
149.096	3	C10H13O+
155.0854	1	C12H11+
157.1013	2	C12H13+
159.1169	4	C12H15+
161.0961	1	C11H13O+
161.1324	1	C12H17+
163.1116	2	C11H15O+
169.101	1	C13H13+
171.1168	2	C13H15+
173.1326	2	C13H17+
175.1116	2	C12H15O+
181.1013	1	C14H13+
183.1169	2	C14H15+
185.0958	2	C13H13O+
185.1326	5	C14H17+
187.1115	1	C13H15O+
187.1479	3	C14H19+
189.1277	2	C13H17O+
195.1167	1	C15H15+
197.1322	2	C15H17+
199.1118	1	C14H15O+
199.1481	2	C15H19+
201.1277	2	C14H17O+
203.1429	1	C14H19O+
207.1167	1	C16H15+
209.1329	1	C16H17+
211.1488	1	C16H19+
213.1275	1	C15H17O+
213.1636	1	C16H21+
215.1431	1	C15H19O+
221.1326	2	C17H17+
223.1481	1	C17H19+
225.1271	1	C16H17O+
225.1639	2	C17H21+
227.1795	2	C17H23+
235.1483	3	C18H19+
237.1642	4	C18H21+
239.1431	1	C17H19O+
239.1797	2	C18H23+
241.1582	1	C17H21O+
243.1744	1	C17H23O+
245.19	23	C17H25O+
249.164	1	C19H21+
253.1587	1	C18H21O+
253.1955	1	C19H25+
255.174	1	C18H23O+
267.1748	1	C19H23O+
267.2109	1	C20H27+
277.1951	9	C21H25+
295.2056	29	C21H27O+
313.2161	999	C21H29O2+
