Mass spectrum: Estrone; LC-ESI-QFT; MS2; CE: 30; R=17500; [M+H]+
Name: Estrone
Name: (8R,9S,13S,14S)-3-hydroxy-13-methyl-7,8,9,11,12,14,15,16-octahydro-6H-cyclopenta[a]phenanthren-17-one
Formula: C18H22O2
Exact mass: 270.1620
SMILES: C[C@]12CC[C@H]3[C@@H](CCC4=C3C=CC(O)=C4)[C@@H]1CCC2=O
InChI: InChI=1S/C18H22O2/c1-18-9-8-14-13-5-3-12(19)10-11(13)2-4-15(14)16(18)6-7-17(18)20/h3,5,10,14-16,19H,2,4,6-9H2,1H3/t14-,15-,16+,18+/m1/s1
Instrument: Q Exactive Orbitrap (Thermo Scientific)
Instrument type: LC-ESI-QFT
Ms type: MS2
Ion mode: POSITIVE
Ionization: ESI
Fragmentation mode: HCD
Collision energy: 30
Resolution: 17500
Column name: Acquity BEH C18 1.7um, 2.1x150mm (Waters)
Retention time: 16.990 min
Base peak: 79.0211
Precursor m/z: 271.1693
Precursor type: [M+H]+
Precursor intensity: 11304724.78125
m/z	relative intensity	assigned
81.0699	1	C6H9+
83.0491	8	C5H7O+
93.07	1	C7H9+
95.0128	71	C5H3O2+
107.0492	2	C7H7O+
107.0855	3	C8H11+
121.0647	2	C8H9O+
133.0647	4	C9H9O+
133.1011	1	C10H13+
135.0804	1	C9H11O+
141.0698	1	C11H9+
143.0854	2	C11H11+
145.0649	1	C10H9O+
145.1012	3	C11H13+
147.0804	2	C10H11O+
149.0962	1	C10H13O+
157.0649	4	C11H9O+
159.0805	8	C11H11O+
159.1169	1	C12H15+
161.0959	2	C11H13O+
167.0857	1	C13H11+
169.1012	1	C13H13+
171.0804	2	C12H11O+
171.1167	3	C13H15+
173.0964	2	C12H13O+
179.0856	2	C14H11+
183.0804	3	C13H11O+
183.1169	2	C14H15+
184.0881	1	C13H12O+
185.0961	4	C13H13O+
187.1116	3	C13H15O+
189.1273	8	C13H17O+
193.1011	2	C15H13+
195.1169	2	C15H15+
197.0962	13	C14H13O+
197.1329	1	C15H17+
198.1041	2	C14H14O+
199.1118	51	C14H15O+
207.1168	2	C16H15+
209.1325	3	C16H17+
211.1117	10	C15H15O+
211.1485	2	C16H19+
212.1196	1	C15H16O+
213.1274	1	C15H17O+
214.1355	2	C15H18O+
215.1432	1	C15H19O+
225.1274	9	C16H17O+
225.1633	2	C17H21+
227.143	12	C16H19O+
235.1481	6	C18H19+
238.135	1	C17H18O+
243.1745	3	C17H23O+
253.1587	101	C18H21O+
271.1692	999	C18H23O2+
