Mass spectrum: N-(2,4-Dimethylphenyl)formamide; LC-ESI-QFT; MS2; CE: 90; R=17500; [M+H]+
Name: N-(2,4-Dimethylphenyl)formamide
Formula: C9H11NO
Exact mass: 149.0841
SMILES: CC1=CC=C(NC=O)C(C)=C1
InChI: InChI=1S/C9H11NO/c1-7-3-4-9(10-6-11)8(2)5-7/h3-6H,1-2H3,(H,10,11)
Instrument: Q Exactive Orbitrap (Thermo Scientific)
Instrument type: LC-ESI-QFT
Ms type: MS2
Ion mode: POSITIVE
Ionization: ESI
Fragmentation mode: HCD
Collision energy: 90
Resolution: 17500
Column name: Acquity BEH C18 1.7um, 2.1x150mm (Waters)
Retention time: 14.859 min
Base peak: 79.0212
Precursor m/z: 150.0913
Precursor type: [M+H]+
Precursor intensity: 7234201.28125
m/z	relative intensity	assigned
50.0152	1	C4H2+
51.0229	1	C4H3+
53.0386	34	C4H5+
56.0495	29	C3H6N+
57.0573	51	C3H7N+
65.0385	464	C5H5+
66.0464	6	C5H6+
67.0541	4	C5H7+
74.0963	1	C4H12N+
77.0384	2	C6H5+
79.0542	25	C6H7+
80.0494	999	C5H6N+
81.0572	6	C5H7N+
81.0698	3	C6H9+
91.0542	10	C7H7+
92.0494	304	C6H6N+
93.0573	36	C6H7N+
94.0651	19	C6H8N+
95.0491	21	C6H7O+
103.0542	17	C8H7+
105.0699	48	C8H9+
106.0651	9	C7H8N+
107.0729	14	C7H9N+
108.0443	322	C6H6NO+
109.0522	99	C6H7NO+
110.06	105	C6H8NO+
117.0572	30	C8H7N+
118.065	5	C8H8N+
120.0444	148	C7H6NO+
120.0807	41	C8H10N+
122.06	8	C7H8NO+
122.0964	7	C8H12N+
132.0807	5	C9H10N+
133.0648	4	C9H9O+
134.06	8	C8H8NO+
135.0678	3	C8H9NO+
150.0913	42	C9H12NO+
