Mass spectrum: dl-Norgestrel; LC-ESI-QFT; MS2; CE: 15; R=17500; [M-H]-
Name: dl-Norgestrel
Name: (8R,9S,10R,13S,14S)-13-ethyl-17-ethynyl-17-hydroxy-1,2,6,7,8,9,10,11,12,14,15,16-dodecahydrocyclopenta[a]phenanthren-3-one
Formula: C21H28O2
Exact mass: 312.2089
SMILES: CC[C@]12CC[C@H]3[C@@H](CCC4=CC(=O)CC[C@H]34)[C@@H]1CCC2(O)C#C
InChI: InChI=1S/C21H28O2/c1-3-20-11-9-17-16-8-6-15(22)13-14(16)5-7-18(17)19(20)10-12-21(20,23)4-2/h2,13,16-19,23H,3,5-12H2,1H3/t16-,17+,18+,19-,20-,21?/m0/s1
Instrument: Q Exactive Orbitrap (Thermo Scientific)
Instrument type: LC-ESI-QFT
Ms type: MS2
Ion mode: NEGATIVE
Ionization: ESI
Fragmentation mode: HCD
Collision energy: 15
Resolution: 17500
Column name: Acquity BEH C18 1.7um, 2.1x150mm (Waters)
Retention time: 19.923 min
Base peak: 112.9856
Precursor m/z: 311.2017
Precursor type: [M-H]-
Precursor intensity: 10306153.00439
m/z	relative intensity	assigned
149.0969	28	C10H13O-
311.2016	999	C21H27O2-
