Mass spectrum: Panthenol; LC-ESI-QFT; MS2; CE: 45; R=17500; [M-H]-
Name: Panthenol
Formula: C9H19NO4
Exact mass: 205.1314
SMILES: CC(C)(CO)C(O)C(=O)NCCCO
InChI: InChI=1S/C9H19NO4/c1-9(2,6-12)7(13)8(14)10-4-3-5-11/h7,11-13H,3-6H2,1-2H3,(H,10,14)
Instrument: Q Exactive Orbitrap (Thermo Scientific)
Instrument type: LC-ESI-QFT
Ms type: MS2
Ion mode: NEGATIVE
Ionization: ESI
Fragmentation mode: HCD
Collision energy: 45
Resolution: 17500
Column name: Acquity BEH C18 1.7um, 2.1x150mm (Waters)
Retention time: 8.174 min
Base peak: 204.1241
Precursor m/z: 204.1241
Precursor type: [M-H]-
Precursor intensity: 2632702.128906
m/z	relative intensity	assigned
55.0189	47	C3H3O-
71.0503	931	C4H7O-
72.0455	481	C3H6NO-
74.0612	739	C3H8NO-
92.0715	5	C3H10NO2-
99.0453	239	C5H7O2-
100.0405	53	C4H6NO2-
102.0561	999	C4H8NO2-
108.0821	17	C7H10N-
118.0511	22	C4H8NO3-
124.0764	4	C7H10NO-
126.0925	131	C7H12NO-
129.0557	15	C6H9O3-
130.051	66	C5H8NO3-
146.0823	24	C6H12NO3-
156.103	22	C8H14NO2-
172.0978	18	C8H14NO3-
174.1135	13	C8H16NO3-
204.1241	158	C9H18NO4-
