Mass spectrum: Panthenol; LC-ESI-QFT; MS2; CE: 60; R=17500; [M-H]-
Name: Panthenol
Formula: C9H19NO4
Exact mass: 205.1314
SMILES: CC(C)(CO)C(O)C(=O)NCCCO
InChI: InChI=1S/C9H19NO4/c1-9(2,6-12)7(13)8(14)10-4-3-5-11/h7,11-13H,3-6H2,1-2H3,(H,10,14)
Instrument: Q Exactive Orbitrap (Thermo Scientific)
Instrument type: LC-ESI-QFT
Ms type: MS2
Ion mode: NEGATIVE
Ionization: ESI
Fragmentation mode: HCD
Collision energy: 60
Resolution: 17500
Column name: Acquity BEH C18 1.7um, 2.1x150mm (Waters)
Retention time: 8.129 min
Base peak: 218.1033
Precursor m/z: 204.1241
Precursor type: [M-H]-
Precursor intensity: 4018992.555664
m/z	relative intensity	assigned
55.0189	120	C3H3O-
71.0503	999	C4H7O-
72.0455	862	C3H6NO-
74.0612	674	C3H8NO-
99.0452	189	C5H7O2-
100.0404	53	C4H6NO2-
102.0561	356	C4H8NO2-
108.0818	17	C7H10N-
118.051	23	C4H8NO3-
126.0924	78	C7H12NO-
130.0509	27	C5H8NO3-
146.0822	4	C6H12NO3-
156.1027	3	C8H14NO2-
172.0983	7	C8H14NO3-
204.1247	4	C9H18NO4-
