Mass spectrum: Bis(2-butoxyethyl) decanedioate; LC-ESI-QFT; MS2; CE: 60; R=17500; [M+H]+
Name: Bis(2-butoxyethyl) decanedioate
Name: Bis(2-butoxyethyl) sebacate
Formula: C22H42O6
Exact mass: 402.2981
SMILES: CCCCOCCOC(=O)CCCCCCCCC(=O)OCCOCCCC
InChI: InChI=1S/C22H42O6/c1-3-5-15-25-17-19-27-21(23)13-11-9-7-8-10-12-14-22(24)28-20-18-26-16-6-4-2/h3-20H2,1-2H3
Instrument: Q Exactive Orbitrap (Thermo Scientific)
Instrument type: LC-ESI-QFT
Ms type: MS2
Ion mode: POSITIVE
Ionization: ESI
Fragmentation mode: HCD
Collision energy: 60
Resolution: 17500
Column name: Acquity BEH C18 1.7um, 2.1x150mm (Waters)
Retention time: 20.199 min
Base peak: 79.0212
Precursor m/z: 403.3054
Precursor type: [M+H]+
Precursor intensity: 3441709.125
m/z	relative intensity	assigned
53.0021	23	C3HO+
55.0179	237	C3H3O+
55.0542	439	C4H7+
57.0335	56	C3H5O+
57.0699	293	C4H9+
59.0492	32	C3H7O+
67.0542	400	C5H7+
69.0698	788	C5H9+
71.049	35	C4H7O+
73.0284	94	C3H5O2+
79.0542	361	C6H7+
81.0699	562	C6H9+
83.0491	105	C5H7O+
83.0855	44	C6H11+
85.065	42	C5H9O+
91.0544	74	C7H7+
93.0699	467	C7H9+
95.0491	33	C6H7O+
95.0855	358	C7H11+
97.0647	148	C6H9O+
97.1012	136	C7H13+
99.0441	999	C5H7O2+
107.0855	41	C8H11+
121.1012	173	C9H13+
123.1168	25	C9H15+
131.0855	26	C10H11+
139.1119	37	C9H15O+
211.1332	89	C12H19O3+
213.1487	32	C12H21O3+
229.1439	61	C12H21O4+
