Mass spectrum: Propham; LC-ESI-QFT; MS2; CE: 75; R=17500; [M+H]+
Name: Propham
Name: propan-2-yl N-phenylcarbamate
Formula: C10H13NO2
Exact mass: 179.0946
SMILES: CC(C)OC(=O)NC1=CC=CC=C1
InChI: InChI=1S/C10H13NO2/c1-8(2)13-10(12)11-9-6-4-3-5-7-9/h3-8H,1-2H3,(H,11,12)
Instrument: Q Exactive Orbitrap (Thermo Scientific)
Instrument type: LC-ESI-QFT
Ms type: MS2
Ion mode: POSITIVE
Ionization: ESI
Fragmentation mode: HCD
Collision energy: 75
Resolution: 17500
Column name: Acquity BEH C18 1.7um, 2.1x150mm (Waters)
Retention time: 14.216 min
Base peak: 79.0212
Precursor m/z: 180.1019
Precursor type: [M+H]+
Precursor intensity: 19018285.25
m/z	relative intensity	assigned
53.0387	1	C4H5+
55.0179	1	C3H3O+
55.0543	1	C4H7+
65.0386	178	C5H5+
67.0416	3	C4H5N+
67.0542	9	C5H7+
68.0495	1	C4H6N+
69.0335	1	C4H5O+
80.0494	6	C5H6N+
81.0573	4	C5H7N+
82.0651	60	C5H8N+
83.0492	1	C5H7O+
91.0543	2	C7H7+
92.0495	135	C6H6N+
93.0336	105	C6H5O+
93.0573	61	C6H7N+
94.0651	9	C6H8N+
95.049	2	C6H7O+
107.0492	1	C7H7O+
108.0445	3	C6H6NO+
109.0524	37	C6H7NO+
110.0601	999	C6H8NO+
111.044	200	C6H7O2+
124.0758	2	C7H10NO+
125.0597	14	C7H9O2+
134.0601	14	C8H8NO+
137.0837	2	C8H11NO+
138.0914	77	C8H12NO+
152.0705	8	C8H10NO2+
162.0913	5	C10H12NO+
180.1017	6	C10H14NO2+
