Mass spectrum: Ethyl 5-oxo-1-phenyl-4,5-dihydro-1H-pyrazole-3-carboxylate; LC-ESI-QFT; MS2; CE: 60; R=17500; [M+H]+
Name: Ethyl 5-oxo-1-phenyl-4,5-dihydro-1H-pyrazole-3-carboxylate
Name: ethyl 5-oxo-1-phenyl-4H-pyrazole-3-carboxylate
Formula: C12H12N2O3
Exact mass: 232.0848
SMILES: CCOC(=O)C1=NN(C(=O)C1)C1=CC=CC=C1
InChI: InChI=1S/C12H12N2O3/c1-2-17-12(16)10-8-11(15)14(13-10)9-6-4-3-5-7-9/h3-7H,2,8H2,1H3
Instrument: Q Exactive Orbitrap (Thermo Scientific)
Instrument type: LC-ESI-QFT
Ms type: MS2
Ion mode: POSITIVE
Ionization: ESI
Fragmentation mode: HCD
Collision energy: 60
Resolution: 17500
Column name: Acquity BEH C18 1.7um, 2.1x150mm (Waters)
Retention time: 15.216 min
Base peak: 79.0212
Precursor m/z: 233.0921
Precursor type: [M+H]+
Precursor intensity: 5277103.9375
m/z	relative intensity	assigned
72.0443	6	C3H6NO+
80.0494	2	C5H6N+
104.0494	13	C7H6N+
110.0601	1	C6H8NO+
131.0604	34	C8H7N2+
143.0605	9	C9H7N2+
147.0552	1	C8H7N2O+
149.0708	1	C8H9N2O+
159.0553	210	C9H7N2O+
187.0502	453	C10H7N2O2+
205.0608	999	C10H9N2O3+
215.0815	32	C12H11N2O2+
219.0765	50	C11H11N2O3+
233.0921	329	C12H13N2O3+
