Mass spectrum: Azacyclotridecan-2-one; LC-ESI-QFT; MS2; CE: 75; R=17500; [M+H]+
Name: Azacyclotridecan-2-one
Formula: C12H23NO
Exact mass: 197.1780
SMILES: O=C1CCCCCCCCCCCN1
InChI: InChI=1S/C12H23NO/c14-12-10-8-6-4-2-1-3-5-7-9-11-13-12/h1-11H2,(H,13,14)
Instrument: Q Exactive Orbitrap (Thermo Scientific)
Instrument type: LC-ESI-QFT
Ms type: MS2
Ion mode: POSITIVE
Ionization: ESI
Fragmentation mode: HCD
Collision energy: 75
Resolution: 17500
Column name: Acquity BEH C18 1.7um, 2.1x150mm (Waters)
Retention time: 18.525 min
Base peak: 79.0211
Precursor m/z: 198.1852
Precursor type: [M+H]+
Precursor intensity: 58776937.75
m/z	relative intensity	assigned
53.0022	23	C3HO+
53.9975	4	C2NO+
55.0543	7	C4H7+
57.0699	162	C4H9+
58.0651	2	C3H8N+
68.0494	13	C4H6N+
69.0335	120	C4H5O+
70.0651	5	C4H8N+
71.0491	1	C4H7O+
71.0855	39	C5H11+
84.0444	1	C4H6NO+
86.06	999	C4H8NO+
93.0573	1	C6H7N+
98.06	8	C5H8NO+
100.0757	1	C5H10NO+
106.0652	1	C7H8N+
114.0914	6	C6H12NO+
128.1068	5	C7H14NO+
142.1225	2	C8H16NO+
198.1853	43	C12H24NO+
