Mass spectrum: Phenylparaben; LC-ESI-QFT; MS2; CE: 75; R=17500; [M-H]-
Name: Phenylparaben
Name: phenyl 4-hydroxybenzoate
Formula: C13H10O3
Exact mass: 214.0630
SMILES: OC1=CC=C(C=C1)C(=O)OC1=CC=CC=C1
InChI: InChI=1S/C13H10O3/c14-11-8-6-10(7-9-11)13(15)16-12-4-2-1-3-5-12/h1-9,14H
Instrument: Q Exactive Orbitrap (Thermo Scientific)
Instrument type: LC-ESI-QFT
Ms type: MS2
Ion mode: NEGATIVE
Ionization: ESI
Fragmentation mode: HCD
Collision energy: 75
Resolution: 17500
Column name: Acquity BEH C18 1.7um, 2.1x150mm (Waters)
Retention time: 17.051 min
Base peak: 213.0558
Precursor m/z: 213.0557
Precursor type: [M-H]-
Precursor intensity: 71382990.85156
m/z	relative intensity	assigned
65.0397	11	C5H5-
91.0191	1	C6H3O-
93.0346	999	C6H5O-
