Mass spectrum: Flavone; LC-ESI-QFT; MS2; CE: 30; R=17500; [M+H]+
Name: Flavone
Name: 2-phenylchromen-4-one
Formula: C15H10O2
Exact mass: 222.0681
SMILES: O=C1C=C(OC2=CC=CC=C12)C1=CC=CC=C1
InChI: InChI=1S/C15H10O2/c16-13-10-15(11-6-2-1-3-7-11)17-14-9-5-4-8-12(13)14/h1-10H
Instrument: Q Exactive Orbitrap (Thermo Scientific)
Instrument type: LC-ESI-QFT
Ms type: MS2
Ion mode: POSITIVE
Ionization: ESI
Fragmentation mode: HCD
Collision energy: 30
Resolution: 17500
Column name: Acquity BEH C18 1.7um, 2.1x150mm (Waters)
Retention time: 17.855 min
Base peak: 79.0211
Precursor m/z: 223.0754
Precursor type: [M+H]+
Precursor intensity: 29601829.23437
m/z	relative intensity	assigned
77.0389	1	C6H5+
223.0752	999	C15H11O2+
