Mass spectrum: N-(2,4-Dimethylphenyl)formamide; LC-ESI-QFT; MS2; CE: 15; R=17500; [M+H]+
Name: N-(2,4-Dimethylphenyl)formamide
Formula: C9H11NO
Exact mass: 149.0841
SMILES: CC1=CC=C(NC=O)C(C)=C1
InChI: InChI=1S/C9H11NO/c1-7-3-4-9(10-6-11)8(2)5-7/h3-6H,1-2H3,(H,10,11)
Instrument: Q Exactive Orbitrap (Thermo Scientific)
Instrument type: LC-ESI-QFT
Ms type: MS2
Ion mode: POSITIVE
Ionization: ESI
Fragmentation mode: HCD
Collision energy: 15
Resolution: 17500
Column name: Acquity BEH C18 1.7um, 2.1x150mm (Waters)
Retention time: 14.859 min
Base peak: 79.0212
Precursor m/z: 150.0913
Precursor type: [M+H]+
Precursor intensity: 10446821.15625
m/z	relative intensity	assigned
79.0542	1	C6H7+
106.0652	1	C7H8N+
107.073	42	C7H9N+
108.0445	2	C6H6NO+
120.0808	35	C8H10N+
121.0887	11	C8H11N+
122.0964	215	C8H12N+
132.0805	1	C9H10N+
135.0676	1	C8H9NO+
150.0913	999	C9H12NO+
