Mass spectrum: 3-Methylbenzoic acid; LC-ESI-QFT; MS2; CE: 15; R=17500; [M-H]-
Name: 3-Methylbenzoic acid
Name: M-Toluic acid
Formula: C8H8O2
Exact mass: 136.0524
SMILES: CC1=CC=CC(=C1)C(O)=O
InChI: InChI=1S/C8H8O2/c1-6-3-2-4-7(5-6)8(9)10/h2-5H,1H3,(H,9,10)
Instrument: Q Exactive Orbitrap (Thermo Scientific)
Instrument type: LC-ESI-QFT
Ms type: MS2
Ion mode: NEGATIVE
Ionization: ESI
Fragmentation mode: HCD
Collision energy: 15
Resolution: 17500
Column name: Acquity BEH C18 1.7um, 2.1x150mm (Waters)
Retention time: 12.400 min
Base peak: 112.9856
Precursor m/z: 135.0452
Precursor type: [M-H]-
Precursor intensity: 554126.1311035
m/z	relative intensity	assigned
92.0266	6	C6H4O-
93.0346	331	C6H5O-
95.0139	18	C5H3O2-
108.0217	118	C6H4O2-
120.0214	8	C7H4O2-
135.0452	999	C8H7O2-
