Mass spectrum: 2-Nitroaniline; LC-ESI-QFT; MS2; CE: 45; R=17500; [M-H]-
Name: 2-Nitroaniline
Formula: C6H6N2O2
Exact mass: 138.0429
SMILES: NC1=CC=CC=C1[N+]([O-])=O
InChI: InChI=1S/C6H6N2O2/c7-5-3-1-2-4-6(5)8(9)10/h1-4H,7H2
Instrument: Q Exactive Orbitrap (Thermo Scientific)
Instrument type: LC-ESI-QFT
Ms type: MS2
Ion mode: NEGATIVE
Ionization: ESI
Fragmentation mode: HCD
Collision energy: 45
Resolution: 17500
Column name: Acquity BEH C18 1.7um, 2.1x150mm (Waters)
Retention time: 14.935 min
Base peak: 137.0245
Precursor m/z: 137.0357
Precursor type: [M-H]-
Precursor intensity: 14375634.36377
m/z	relative intensity	assigned
65.0397	8	C5H5-
80.0268	1	C5H4O-
93.0346	999	C6H5O-
107.0376	12	C6H5NO-
137.035	8	C6H5N2O2-
