Mass spectrum: Phenacetin; LC-ESI-QFT; MS2; CE: 90; R=17500; [M+H]+
Name: Phenacetin
Name: N-(4-ethoxyphenyl)acetamide
Formula: C10H13NO2
Exact mass: 179.0946
SMILES: CCOC1=CC=C(NC(C)=O)C=C1
InChI: InChI=1S/C10H13NO2/c1-3-13-10-6-4-9(5-7-10)11-8(2)12/h4-7H,3H2,1-2H3,(H,11,12)
Instrument: Q Exactive Orbitrap (Thermo Scientific)
Instrument type: LC-ESI-QFT
Ms type: MS2
Ion mode: POSITIVE
Ionization: ESI
Fragmentation mode: HCD
Collision energy: 90
Resolution: 17500
Column name: Acquity BEH C18 1.7um, 2.1x150mm (Waters)
Retention time: 14.216 min
Base peak: 79.0212
Precursor m/z: 180.1019
Precursor type: [M+H]+
Precursor intensity: 20359037.625
m/z	relative intensity	assigned
53.0022	4	C3HO+
53.0387	3	C4H5+
55.0178	3	C3H3O+
55.0542	8	C4H7+
65.0385	780	C5H5+
67.0416	27	C4H5N+
67.0542	20	C5H7+
68.0494	3	C4H6N+
69.0334	1	C4H5O+
70.0287	1	C3H4NO+
80.0494	25	C5H6N+
81.0573	15	C5H7N+
82.0651	133	C5H8N+
83.0491	6	C5H7O+
91.0543	6	C7H7+
92.0494	297	C6H6N+
93.0335	210	C6H5O+
93.0573	145	C6H7N+
94.0414	2	C6H6O+
94.0651	11	C6H8N+
95.0491	7	C6H7O+
107.0492	1	C7H7O+
108.0444	9	C6H6NO+
109.0523	97	C6H7NO+
110.06	999	C6H8NO+
111.044	424	C6H7O2+
124.0756	4	C7H10NO+
125.0596	29	C7H9O2+
134.0601	12	C8H8NO+
135.0682	1	C8H9NO+
138.0913	23	C8H12NO+
152.0707	1	C8H10NO2+
162.0909	1	C10H12NO+
