Mass spectrum: UK-156819; LC-ESI-QFT; MS2; CE: 15; R=17500; [M-H]-
Name: UK-156819
Name: 5-(2-Methyl-3-(pyridin-3-yl)-1H-indol-1-yl)pentanoic acid
Name: 5-(2-methyl-3-pyridin-3-ylindol-1-yl)pentanoic acid
Formula: C19H20N2O2
Exact mass: 308.1525
SMILES: CC1=C(C2=C(C=CC=C2)N1CCCCC(O)=O)C1=CN=CC=C1
InChI: InChI=1S/C19H20N2O2/c1-14-19(15-7-6-11-20-13-15)16-8-2-3-9-17(16)21(14)12-5-4-10-18(22)23/h2-3,6-9,11,13H,4-5,10,12H2,1H3,(H,22,23)
Instrument: Q Exactive Orbitrap (Thermo Scientific)
Instrument type: LC-ESI-QFT
Ms type: MS2
Ion mode: NEGATIVE
Ionization: ESI
Fragmentation mode: HCD
Collision energy: 15
Resolution: 17500
Column name: Acquity BEH C18 1.7um, 2.1x150mm (Waters)
Retention time: 17.587 min
Base peak: 193.0869
Precursor m/z: 307.1452
Precursor type: [M-H]-
Precursor intensity: 44148887.8877
m/z	relative intensity	assigned
82.0662	1	C5H8N-
92.0504	6	C6H6N-
131.0376	20	C8H5NO-
160.113	3	C11H14N-
170.0973	1	C12H12N-
188.1081	12	C12H14NO-
214.0875	1	C13H12NO2-
230.1057	1	C13H14N2O2-
250.0629	2	C19H8N-
279.1502	45	C18H19N2O-
307.1448	999	C19H19N2O2-
