Mass spectrum: Butylparaben; LC-ESI-QFT; MS2; CE: 75; R=17500; [M-H]-
Name: Butylparaben
Name: butyl 4-hydroxybenzoate
Formula: C11H14O3
Exact mass: 194.0943
SMILES: CCCCOC(=O)C1=CC=C(O)C=C1
InChI: InChI=1S/C11H14O3/c1-2-3-8-14-11(13)9-4-6-10(12)7-5-9/h4-7,12H,2-3,8H2,1H3
Instrument: Q Exactive Orbitrap (Thermo Scientific)
Instrument type: LC-ESI-QFT
Ms type: MS2
Ion mode: NEGATIVE
Ionization: ESI
Fragmentation mode: HCD
Collision energy: 75
Resolution: 17500
Column name: Acquity BEH C18 1.7um, 2.1x150mm (Waters)
Retention time: 17.576 min
Base peak: 193.0869
Precursor m/z: 193.087
Precursor type: [M-H]-
Precursor intensity: 59358515.21484
m/z	relative intensity	assigned
53.0032	2	C3HO-
55.019	1	C3H3O-
65.0034	1	C4HO-
65.0397	7	C5H5-
66.0111	1	C4H2O-
67.0189	4	C4H3O-
68.9982	9	C3HO2-
69.0346	10	C4H5O-
70.006	9	C3H2O2-
71.0138	7	C3H3O2-
71.0503	105	C4H7O-
72.9932	3	C2HO3-
73.0658	4	C4H9O-
78.0113	2	C5H2O-
79.019	7	C5H3O-
79.9905	4	C4O2-
80.9983	3	C4HO2-
82.0061	40	C4H2O2-
83.014	1	C4H3O2-
86.0011	1	C3H2O3-
91.019	84	C6H3O-
92.0268	338	C6H4O-
93.0346	999	C6H5O-
95.0139	421	C5H3O2-
97.0296	5	C5H5O2-
98.0011	1	C4H2O3-
106.0061	22	C6H2O2-
107.0139	3	C6H3O2-
108.0217	411	C6H4O2-
109.0297	2	C6H5O2-
119.0138	7	C7H3O2-
121.0295	29	C7H5O2-
123.0088	53	C6H3O3-
125.0242	1	C6H5O3-
136.0166	62	C7H4O3-
137.0244	49	C7H5O3-
193.0871	4	C11H13O3-
