Mass spectrum: Dinoseb; LC-ESI-QFT; MS2; CE: 30; R=17500; [M-H]-
Name: Dinoseb
Name: 2-butan-2-yl-4,6-dinitrophenol
Formula: C10H12N2O5
Exact mass: 240.0746
SMILES: CCC(C)C1=CC(=CC(=C1O)[N+]([O-])=O)[N+]([O-])=O
InChI: InChI=1S/C10H12N2O5/c1-3-6(2)8-4-7(11(14)15)5-9(10(8)13)12(16)17/h4-6,13H,3H2,1-2H3
Instrument: Q Exactive Orbitrap (Thermo Scientific)
Instrument type: LC-ESI-QFT
Ms type: MS2
Ion mode: NEGATIVE
Ionization: ESI
Fragmentation mode: HCD
Collision energy: 30
Resolution: 17500
Column name: Acquity BEH C18 1.7um, 2.1x150mm (Waters)
Retention time: 18.846 min
Base peak: 239.0673
Precursor m/z: 239.0673
Precursor type: [M-H]-
Precursor intensity: 88720910.91211
m/z	relative intensity	assigned
151.0762	1	C9H11O2-
179.0712	4	C10H11O3-
193.0742	1	C10H11NO3-
194.0458	4	C9H8NO4-
207.0411	19	C9H7N2O4-
208.0614	1	C10H10NO4-
209.0694	9	C10H11NO4-
224.0438	4	C9H8N2O5-
239.0673	999	C10H11N2O5-
