Mass spectrum: Estrone; LC-ESI-QFT; MS2; CE: 90; R=17500; [M-H]-
Name: Estrone
Name: (8R,9S,13S,14S)-3-hydroxy-13-methyl-7,8,9,11,12,14,15,16-octahydro-6H-cyclopenta[a]phenanthren-17-one
Formula: C18H22O2
Exact mass: 270.1620
SMILES: C[C@]12CC[C@H]3[C@@H](CCC4=C3C=CC(O)=C4)[C@@H]1CCC2=O
InChI: InChI=1S/C18H22O2/c1-18-9-8-14-13-5-3-12(19)10-11(13)2-4-15(14)16(18)6-7-17(18)20/h3,5,10,14-16,19H,2,4,6-9H2,1H3/t14-,15-,16+,18+/m1/s1
Instrument: Q Exactive Orbitrap (Thermo Scientific)
Instrument type: LC-ESI-QFT
Ms type: MS2
Ion mode: NEGATIVE
Ionization: ESI
Fragmentation mode: HCD
Collision energy: 90
Resolution: 17500
Column name: Acquity BEH C18 1.7um, 2.1x150mm (Waters)
Retention time: 17.718 min
Base peak: 317.1618
Precursor m/z: 269.1547
Precursor type: [M-H]-
Precursor intensity: 1487881.78125
m/z	relative intensity	assigned
93.0347	16	C6H5O-
119.0503	999	C8H7O-
132.0581	12	C9H8O-
133.0658	27	C9H9O-
