Mass spectrum: tert-Butyl hydrogen phthalate; LC-ESI-QFT; MS2; CE: 30; R=17500; [M-H]-
Name: tert-Butyl hydrogen phthalate
Name: 2-[(2-methylpropan-2-yl)oxycarbonyl]benzoic acid
Formula: C12H14O4
Exact mass: 222.0892
SMILES: CC(C)(C)OC(=O)C1=CC=CC=C1C(O)=O
InChI: InChI=1S/C12H14O4/c1-12(2,3)16-11(15)9-7-5-4-6-8(9)10(13)14/h4-7H,1-3H3,(H,13,14)
Instrument: Q Exactive Orbitrap (Thermo Scientific)
Instrument type: LC-ESI-QFT
Ms type: MS2
Ion mode: NEGATIVE
Ionization: ESI
Fragmentation mode: HCD
Collision energy: 30
Resolution: 17500
Column name: Acquity BEH C18 1.7um, 2.1x150mm (Waters)
Retention time: 16.061 min
Base peak: 221.0819
Precursor m/z: 221.0819
Precursor type: [M-H]-
Precursor intensity: 33470987.44922
m/z	relative intensity	assigned
57.0345	16	C3H5O-
73.0659	53	C4H9O-
75.0239	4	C6H3-
77.0393	2	C6H5-
93.0346	5	C6H5O-
103.0189	1	C7H3O-
119.0139	4	C7H3O2-
121.0295	999	C7H5O2-
147.0088	256	C8H3O3-
165.0193	49	C8H5O4-
179.0349	1	C9H7O4-
221.0819	45	C12H13O4-
