Mass spectrum: Alachlor; LC-ESI-QFT; MS2; CE: 45; R=17500; [M+H]+
Name: Alachlor
Name: 2-chloro-N-(2,6-diethylphenyl)-N-(methoxymethyl)acetamide
Formula: C14H20ClNO2
Exact mass: 269.1183
SMILES: CCC1=CC=CC(CC)=C1N(COC)C(=O)CCl
InChI: InChI=1S/C14H20ClNO2/c1-4-11-7-6-8-12(5-2)14(11)16(10-18-3)13(17)9-15/h6-8H,4-5,9-10H2,1-3H3
Instrument: Q Exactive Orbitrap (Thermo Scientific)
Instrument type: LC-ESI-QFT
Ms type: MS2
Ion mode: POSITIVE
Ionization: ESI
Fragmentation mode: HCD
Collision energy: 45
Resolution: 17500
Column name: Acquity BEH C18 1.7um, 2.1x150mm (Waters)
Retention time: 18.208 min
Base peak: 79.0211
Precursor m/z: 270.1255
Precursor type: [M+H]+
Precursor intensity: 951779.875
m/z	relative intensity	assigned
57.0699	41	C4H9+
59.0492	332	C3H7O+
74.0964	63	C4H12N+
76.9788	35	C2H2ClO+
90.0106	285	C3H5ClN+
95.0129	999	C5H3O2+
131.0861	47	C10H11+
132.0806	43	C9H10N+
133.0887	86	C9H11N+
134.0965	50	C9H12N+
144.0814	46	C10H10N+
146.0966	86	C10H12N+
147.1045	179	C10H13N+
148.1123	727	C10H14N+
149.0962	108	C10H13O+
158.0497	579	C8H11ClO+
162.1279	986	C11H16N+
163.112	261	C11H15O+
174.0909	30	C11H12NO+
206.0734	110	C12H13ClN+
208.0882	28	C12H15ClN+
214.1123	110	C12H19ClO+
220.0891	97	C13H15ClN+
224.0839	75	C12H15ClNO+
238.1001	175	C13H17ClNO+
