Mass spectrum: N-(2,4-Dimethylphenyl)formamide; LC-ESI-QFT; MS2; CE: 45; R=17500; [M+H]+
Name: N-(2,4-Dimethylphenyl)formamide
Formula: C9H11NO
Exact mass: 149.0841
SMILES: CC1=CC=C(NC=O)C(C)=C1
InChI: InChI=1S/C9H11NO/c1-7-3-4-9(10-6-11)8(2)5-7/h3-6H,1-2H3,(H,10,11)
Instrument: Q Exactive Orbitrap (Thermo Scientific)
Instrument type: LC-ESI-QFT
Ms type: MS2
Ion mode: POSITIVE
Ionization: ESI
Fragmentation mode: HCD
Collision energy: 45
Resolution: 17500
Column name: Acquity BEH C18 1.7um, 2.1x150mm (Waters)
Retention time: 14.859 min
Base peak: 79.0212
Precursor m/z: 150.0913
Precursor type: [M+H]+
Precursor intensity: 8344984.875
m/z	relative intensity	assigned
77.0384	1	C6H5+
79.0542	10	C6H7+
81.0699	3	C6H9+
92.0494	1	C6H6N+
93.0699	3	C7H9+
94.0651	1	C6H8N+
105.0699	1	C8H9+
106.0651	8	C7H8N+
107.0729	260	C7H9N+
108.0443	6	C6H6NO+
120.0808	194	C8H10N+
121.0887	79	C8H11N+
122.0964	636	C8H12N+
132.0806	2	C9H10N+
135.0678	4	C8H9NO+
150.0913	999	C9H12NO+
