Mass spectrum: 1,3-Benzenedicarboxylic acid; LC-ESI-QFT; MS2; CE: 75; R=17500; [M-H]-
Name: 1,3-Benzenedicarboxylic acid
Name: Isophthalic acid
Name: benzene-1,3-dicarboxylic acid
Formula: C8H6O4
Exact mass: 166.0266
SMILES: OC(=O)C1=CC(=CC=C1)C(O)=O
InChI: InChI=1S/C8H6O4/c9-7(10)5-2-1-3-6(4-5)8(11)12/h1-4H,(H,9,10)(H,11,12)
Instrument: Q Exactive Orbitrap (Thermo Scientific)
Instrument type: LC-ESI-QFT
Ms type: MS2
Ion mode: NEGATIVE
Ionization: ESI
Fragmentation mode: HCD
Collision energy: 75
Resolution: 17500
Column name: Acquity BEH C18 1.7um, 2.1x150mm (Waters)
Retention time: 13.283 min
Base peak: 165.0193
Precursor m/z: 165.0193
Precursor type: [M-H]-
Precursor intensity: 6241167.606934
m/z	relative intensity	assigned
75.0241	49	C6H3-
93.0348	18	C6H5O-
108.0222	9	C6H4O2-
121.0295	999	C7H5O2-
