Mass spectrum: 3-[Ethyl(phenyl)amino]propanenitrile; LC-ESI-QFT; MS2; CE: 45; R=17500; [M+H]+
Name: 3-[Ethyl(phenyl)amino]propanenitrile
Name: N-(2-Cyanoethyl)-N-ethylaniline
Formula: C11H14N2
Exact mass: 174.1157
SMILES: CCN(CCC#N)C1=CC=CC=C1
InChI: InChI=1S/C11H14N2/c1-2-13(10-6-9-12)11-7-4-3-5-8-11/h3-5,7-8H,2,6,10H2,1H3
Instrument: Q Exactive Orbitrap (Thermo Scientific)
Instrument type: LC-ESI-QFT
Ms type: MS2
Ion mode: POSITIVE
Ionization: ESI
Fragmentation mode: HCD
Collision energy: 45
Resolution: 17500
Column name: Acquity BEH C18 1.7um, 2.1x150mm (Waters)
Retention time: 15.747 min
Base peak: 79.0211
Precursor m/z: 175.123
Precursor type: [M+H]+
Precursor intensity: 14212187.75
m/z	relative intensity	assigned
51.0229	1	C4H3+
70.0651	6	C4H8N+
77.0386	3	C6H5+
79.0542	1	C6H7+
93.0574	9	C6H7N+
104.0493	3	C7H6N+
106.0651	999	C7H8N+
119.0731	9	C8H9N+
120.081	3	C8H10N+
121.0886	594	C8H11N+
122.0963	23	C8H12N+
130.0651	4	C9H8N+
134.0964	474	C9H12N+
145.0761	4	C9H9N2+
146.0838	78	C9H10N2+
147.0916	24	C9H11N2+
158.0963	2	C11H12N+
175.1229	240	C11H15N2+
