Mass spectrum: Triethylene glycol bis(2-ethylhexanoate); LC-ESI-QFT; MS2; CE: 45; R=17500; [M+H]+
Name: Triethylene glycol bis(2-ethylhexanoate)
Name: 2-[2-[2-(2-ethylhexanoyloxy)ethoxy]ethoxy]ethyl 2-ethylhexanoate
Formula: C22H42O6
Exact mass: 402.2981
SMILES: CCCCC(CC)C(=O)OCCOCCOCCOC(=O)C(CC)CCCC
InChI: InChI=1S/C22H42O6/c1-5-9-11-19(7-3)21(23)27-17-15-25-13-14-26-16-18-28-22(24)20(8-4)12-10-6-2/h19-20H,5-18H2,1-4H3
Instrument: Q Exactive Orbitrap (Thermo Scientific)
Instrument type: LC-ESI-QFT
Ms type: MS2
Ion mode: POSITIVE
Ionization: ESI
Fragmentation mode: HCD
Collision energy: 45
Resolution: 17500
Column name: Acquity BEH C18 1.7um, 2.1x150mm (Waters)
Retention time: 20.572 min
Base peak: 79.0211
Precursor m/z: 403.3054
Precursor type: [M+H]+
Precursor intensity: 1683354.015625
m/z	relative intensity	assigned
53.0022	5	C3HO+
57.0699	410	C4H9+
73.0284	158	C3H5O2+
85.0647	5	C5H9O+
101.0598	40	C5H9O2+
109.1012	11	C8H13+
129.0912	9	C7H13O2+
171.138	999	C10H19O2+
