Mass spectrum: 3-Ethoxy-4-hydroxybenzaldehyde; LC-ESI-QFT; MS2; CE: 75; R=17500; [M-H]-
Name: 3-Ethoxy-4-hydroxybenzaldehyde
Name: Ethyl vanillin
Formula: C9H10O3
Exact mass: 166.0630
SMILES: CCOC1=C(O)C=CC(C=O)=C1
InChI: InChI=1S/C9H10O3/c1-2-12-9-5-7(6-10)3-4-8(9)11/h3-6,11H,2H2,1H3
Instrument: Q Exactive Orbitrap (Thermo Scientific)
Instrument type: LC-ESI-QFT
Ms type: MS2
Ion mode: NEGATIVE
Ionization: ESI
Fragmentation mode: HCD
Collision energy: 75
Resolution: 17500
Column name: Acquity BEH C18 1.7um, 2.1x150mm (Waters)
Retention time: 15.443 min
Base peak: 165.0556
Precursor m/z: 165.0557
Precursor type: [M-H]-
Precursor intensity: 28231095.67383
m/z	relative intensity	assigned
65.0396	7	C5H5-
67.019	1	C4H3O-
68.9982	5	C3HO2-
69.0346	5	C4H5O-
70.006	5	C3H2O2-
71.0138	3	C3H3O2-
72.9931	2	C2HO3-
78.0112	1	C5H2O-
79.0189	2	C5H3O-
79.9903	1	C4O2-
80.9983	2	C4HO2-
82.006	21	C4H2O2-
91.019	40	C6H3O-
92.0268	148	C6H4O-
93.0346	999	C6H5O-
95.0138	216	C5H3O2-
97.0295	2	C5H5O2-
106.0061	12	C6H2O2-
107.0139	2	C6H3O2-
107.0502	2	C7H7O-
108.0217	203	C6H4O2-
109.0291	1	C6H5O2-
119.0136	4	C7H3O2-
121.0295	12	C7H5O2-
123.0088	28	C6H3O3-
136.0165	43	C7H4O3-
137.0244	65	C7H5O3-
165.0557	6	C9H9O3-
