Mass spectrum: Bis(2-butoxyethyl) decanedioate; LC-ESI-QFT; MS2; CE: 45; R=17500; [M+H]+
Name: Bis(2-butoxyethyl) decanedioate
Name: Bis(2-butoxyethyl) sebacate
Formula: C22H42O6
Exact mass: 402.2981
SMILES: CCCCOCCOC(=O)CCCCCCCCC(=O)OCCOCCCC
InChI: InChI=1S/C22H42O6/c1-3-5-15-25-17-19-27-21(23)13-11-9-7-8-10-12-14-22(24)28-20-18-26-16-6-4-2/h3-20H2,1-2H3
Instrument: Q Exactive Orbitrap (Thermo Scientific)
Instrument type: LC-ESI-QFT
Ms type: MS2
Ion mode: POSITIVE
Ionization: ESI
Fragmentation mode: HCD
Collision energy: 45
Resolution: 17500
Column name: Acquity BEH C18 1.7um, 2.1x150mm (Waters)
Retention time: 20.199 min
Base peak: 79.0211
Precursor m/z: 403.3054
Precursor type: [M+H]+
Precursor intensity: 3082706.1875
m/z	relative intensity	assigned
55.018	90	C3H3O+
55.0543	273	C4H7+
57.0336	46	C3H5O+
57.0699	565	C4H9+
59.0492	24	C3H7O+
67.0542	254	C5H7+
69.0698	482	C5H9+
71.0493	41	C4H7O+
73.0284	117	C3H5O2+
79.0542	226	C6H7+
81.0699	509	C6H9+
83.0492	96	C5H7O+
83.0856	68	C6H11+
91.0543	44	C7H7+
93.0699	386	C7H9+
95.0856	225	C7H11+
97.0648	174	C6H9O+
97.1013	176	C7H13+
99.0441	970	C5H7O2+
105.0697	40	C8H9+
107.0857	93	C8H11+
121.1012	451	C9H13+
123.1169	90	C9H15+
139.1119	265	C9H15O+
203.1281	32	C10H19O4+
211.1331	999	C12H19O3+
213.1487	474	C12H21O3+
229.1437	757	C12H21O4+
273.1701	29	C14H25O5+
