Mass spectrum: Butylparaben; LC-ESI-QFT; MS2; CE: 15; R=17500; [M-H]-
Name: Butylparaben
Name: butyl 4-hydroxybenzoate
Formula: C11H14O3
Exact mass: 194.0943
SMILES: CCCCOC(=O)C1=CC=C(O)C=C1
InChI: InChI=1S/C11H14O3/c1-2-3-8-14-11(13)9-4-6-10(12)7-5-9/h4-7,12H,2-3,8H2,1H3
Instrument: Q Exactive Orbitrap (Thermo Scientific)
Instrument type: LC-ESI-QFT
Ms type: MS2
Ion mode: NEGATIVE
Ionization: ESI
Fragmentation mode: HCD
Collision energy: 15
Resolution: 17500
Column name: Acquity BEH C18 1.7um, 2.1x150mm (Waters)
Retention time: 17.576 min
Base peak: 193.0869
Precursor m/z: 193.087
Precursor type: [M-H]-
Precursor intensity: 56755115.04102
m/z	relative intensity	assigned
82.0061	1	C4H2O2-
92.0265	16	C6H4O-
93.0346	54	C6H5O-
95.0139	8	C5H3O2-
108.0217	7	C6H4O2-
119.0138	1	C7H3O2-
123.0088	1	C6H3O3-
136.0166	162	C7H4O3-
137.0244	184	C7H5O3-
149.0971	1	C10H13O-
193.0869	999	C11H13O3-
