Mass spectrum: Diisopropyl phthalate; LC-ESI-QFT; MS2; CE: 15; R=17500; [M+H]+
Name: Diisopropyl phthalate
Name: dipropan-2-yl benzene-1,2-dicarboxylate
Formula: C14H18O4
Exact mass: 250.1205
SMILES: CC(C)OC(=O)C1=CC=CC=C1C(=O)OC(C)C
InChI: InChI=1S/C14H18O4/c1-9(2)17-13(15)11-7-5-6-8-12(11)14(16)18-10(3)4/h5-10H,1-4H3
Instrument: Q Exactive Orbitrap (Thermo Scientific)
Instrument type: LC-ESI-QFT
Ms type: MS2
Ion mode: POSITIVE
Ionization: ESI
Fragmentation mode: HCD
Collision energy: 15
Resolution: 17500
Column name: Acquity BEH C18 1.7um, 2.1x150mm (Waters)
Retention time: 17.943 min
Base peak: 79.0211
Precursor m/z: 251.1278
Precursor type: [M+H]+
Precursor intensity: 6999484.5
m/z	relative intensity	assigned
149.0234	710	C8H5O3+
167.0855	366	C13H11+
251.1273	999	C14H19O4+
