Mass spectrum: tert-Butyl hydrogen phthalate; LC-ESI-QFT; MS2; CE: 30; R=17500; [M+H]+
Name: tert-Butyl hydrogen phthalate
Name: 2-[(2-methylpropan-2-yl)oxycarbonyl]benzoic acid
Formula: C12H14O4
Exact mass: 222.0892
SMILES: CC(C)(C)OC(=O)C1=CC=CC=C1C(O)=O
InChI: InChI=1S/C12H14O4/c1-12(2,3)16-11(15)9-7-5-4-6-8(9)10(13)14/h4-7H,1-3H3,(H,13,14)
Instrument: Q Exactive Orbitrap (Thermo Scientific)
Instrument type: LC-ESI-QFT
Ms type: MS2
Ion mode: POSITIVE
Ionization: ESI
Fragmentation mode: HCD
Collision energy: 30
Resolution: 17500
Column name: Acquity BEH C18 1.7um, 2.1x150mm (Waters)
Retention time: 16.637 min
Base peak: 79.0211
Precursor m/z: 223.0965
Precursor type: [M+H]+
Precursor intensity: 1435594.0625
m/z	relative intensity	assigned
126.0107	999	C9H2O+
