Mass spectrum: m-xylene-4-sulfonic acid; LC-ESI-QFT; MS2; CE: 90; R=17500; [M-H]-
Name: m-xylene-4-sulfonic acid
Name: 2,4-dimethylbenzenesulfonic acid
Formula: C8H10O3S
Exact mass: 186.0351
SMILES: CC1=CC=C(C(C)=C1)S(O)(=O)=O
InChI: InChI=1S/C8H10O3S/c1-6-3-4-8(7(2)5-6)12(9,10)11/h3-5H,1-2H3,(H,9,10,11)
Instrument: Q Exactive Orbitrap (Thermo Scientific)
Instrument type: LC-ESI-QFT
Ms type: MS2
Ion mode: NEGATIVE
Ionization: ESI
Fragmentation mode: HCD
Collision energy: 90
Resolution: 17500
Column name: Acquity BEH C18 1.7um, 2.1x150mm (Waters)
Retention time: 12.710 min
Base peak: 185.0277
Precursor m/z: 185.0278
Precursor type: [M-H]-
Precursor intensity: 39075627.26904
m/z	relative intensity	assigned
79.9574	999	O3S-
80.9651	5	HO3S-
106.0425	1	C7H6O-
120.0581	1	C8H8O-
121.0659	72	C8H9O-
137.0607	1	C8H9O2-
185.0278	12	C8H9O3S-
