Mass spectrum: meso-Hexestrol; LC-ESI-QFT; MS2; CE: 60; R=17500; [M+H]+
Name: meso-Hexestrol
Name: 4-[(3S,4R)-4-(4-hydroxyphenyl)hexan-3-yl]phenol
Formula: C18H22O2
Exact mass: 270.1620
SMILES: CC[C@@H]([C@@H](CC)C1=CC=C(O)C=C1)C1=CC=C(O)C=C1
InChI: InChI=1S/C18H22O2/c1-3-17(13-5-9-15(19)10-6-13)18(4-2)14-7-11-16(20)12-8-14/h5-12,17-20H,3-4H2,1-2H3/t17-,18+
Instrument: Q Exactive Orbitrap (Thermo Scientific)
Instrument type: LC-ESI-QFT
Ms type: MS2
Ion mode: POSITIVE
Ionization: ESI
Fragmentation mode: HCD
Collision energy: 60
Resolution: 17500
Column name: Acquity BEH C18 1.7um, 2.1x150mm (Waters)
Retention time: 16.990 min
Base peak: 79.0211
Precursor m/z: 271.1693
Precursor type: [M+H]+
Precursor intensity: 9041117.90625
m/z	relative intensity	assigned
53.0023	7	C3HO+
53.0386	11	C4H5+
55.0178	44	C3H3O+
55.0542	106	C4H7+
57.0335	28	C3H5O+
65.0385	6	C5H5+
67.0542	88	C5H7+
69.0334	8	C4H5O+
69.0699	35	C5H9+
71.0492	37	C4H7O+
77.0385	6	C6H5+
79.0542	147	C6H7+
81.0699	132	C6H9+
83.0491	421	C5H7O+
85.0647	20	C5H9O+
91.0542	191	C7H7+
93.0699	122	C7H9+
95.0128	843	C5H3O2+
95.0491	47	C6H7O+
97.0648	24	C6H9O+
103.0542	28	C8H7+
105.0699	246	C8H9+
107.0491	473	C7H7O+
107.0855	108	C8H11+
109.0649	74	C7H9O+
109.1011	15	C8H13+
111.0805	12	C7H11O+
115.054	35	C9H7+
116.0619	6	C9H8+
117.0699	136	C9H9+
119.0494	4	C8H7O+
119.0856	89	C9H11+
121.0648	123	C8H9O+
121.1012	15	C9H13+
123.0804	18	C8H11O+
127.0546	4	C10H7+
128.062	52	C10H8+
129.0699	174	C10H9+
130.0777	25	C10H10+
131.0492	40	C9H7O+
131.0855	211	C10H11+
132.0568	8	C9H8O+
133.0648	341	C9H9O+
133.1011	61	C10H13+
135.0804	133	C9H11O+
141.0699	190	C11H9+
142.0776	49	C11H10+
143.0855	236	C11H11+
144.057	55	C10H8O+
144.0932	9	C11H12+
145.0648	130	C10H9O+
145.1012	231	C11H13+
146.0726	20	C10H10O+
146.109	23	C11H14+
147.0804	102	C10H11O+
147.1166	9	C11H15+
148.0883	56	C10H12O+
149.096	17	C10H13O+
152.0619	14	C12H8+
153.0699	58	C12H9+
154.0776	39	C12H10+
155.0855	231	C12H11+
156.0934	40	C12H12+
157.0648	342	C11H9O+
157.1012	105	C12H13+
158.0726	33	C11H10O+
159.0804	347	C11H11O+
159.1169	35	C12H15+
160.0882	6	C11H12O+
161.0961	73	C11H13O+
162.1041	8	C11H14O+
165.0698	115	C13H9+
166.0778	109	C13H10+
167.0855	176	C13H11+
168.0932	63	C13H12+
169.0647	19	C12H9O+
169.1012	213	C13H13+
170.0731	28	C12H10O+
170.1089	18	C13H14+
171.0805	140	C12H11O+
171.1168	94	C13H15+
172.0887	11	C12H12O+
173.0962	65	C12H13O+
174.1038	6	C12H14O+
175.1116	8	C12H15O+
178.0777	107	C14H10+
179.0855	231	C14H11+
180.0931	57	C14H12+
181.0647	13	C13H9O+
181.1012	204	C14H13+
182.0725	23	C13H10O+
182.109	33	C14H14+
183.0804	130	C13H11O+
183.1169	170	C14H15+
184.0882	106	C13H12O+
185.0961	209	C13H13O+
185.1323	22	C14H17+
186.1039	111	C13H14O+
187.1118	75	C13H15O+
188.1194	6	C13H16O+
189.1274	13	C13H17O+
191.0853	26	C15H11+
192.0934	55	C15H12+
193.1013	141	C15H13+
194.1088	36	C15H14+
195.0806	26	C14H11O+
195.1169	137	C15H15+
196.0885	42	C14H12O+
196.1244	26	C15H16+
197.0961	262	C14H13O+
197.1325	48	C15H17+
198.104	233	C14H14O+
199.1117	999	C14H15O+
200.1196	195	C14H16O+
201.1273	10	C14H17O+
205.1014	63	C16H13+
206.1094	35	C16H14+
207.1169	118	C16H15+
209.096	34	C15H13O+
209.1325	86	C16H17+
210.1041	52	C15H14O+
210.1396	9	C16H18+
211.1117	184	C15H15O+
211.1481	76	C16H19+
212.1196	123	C15H16O+
213.1274	77	C15H17O+
214.1352	286	C15H18O+
215.1431	33	C15H19O+
218.1093	12	C17H14+
219.1166	11	C17H15+
220.1247	75	C17H16+
221.1323	17	C17H17+
223.1119	36	C16H15O+
223.1479	23	C17H19+
224.1194	78	C16H16O+
224.1552	5	C17H20+
225.1274	174	C16H17O+
225.1638	17	C17H21+
227.143	387	C16H19O+
228.1505	33	C16H20O+
233.1325	11	C18H17+
235.1481	139	C18H19+
237.1272	34	C17H17O+
238.1351	178	C17H18O+
242.1302	10	C16H18O2+
243.1739	7	C17H23O+
251.1427	10	C18H19O+
253.1586	494	C18H21O+
271.1692	330	C18H23O2+
