Mass spectrum: Flavone; LC-ESI-QFT; MS2; CE: 45; R=17500; [M+H]+
Name: Flavone
Name: 2-phenylchromen-4-one
Formula: C15H10O2
Exact mass: 222.0681
SMILES: O=C1C=C(OC2=CC=CC=C12)C1=CC=CC=C1
InChI: InChI=1S/C15H10O2/c16-13-10-15(11-6-2-1-3-7-11)17-14-9-5-4-8-12(13)14/h1-10H
Instrument: Q Exactive Orbitrap (Thermo Scientific)
Instrument type: LC-ESI-QFT
Ms type: MS2
Ion mode: POSITIVE
Ionization: ESI
Fragmentation mode: HCD
Collision energy: 45
Resolution: 17500
Column name: Acquity BEH C18 1.7um, 2.1x150mm (Waters)
Retention time: 17.855 min
Base peak: 79.0211
Precursor m/z: 223.0754
Precursor type: [M+H]+
Precursor intensity: 25231956.15625
m/z	relative intensity	assigned
53.0386	1	C4H5+
77.0388	1	C6H5+
93.0335	1	C6H5O+
95.0492	8	C6H7O+
103.0543	7	C8H7+
105.0333	2	C7H5O+
121.0284	26	C7H5O2+
129.0335	7	C9H5O+
152.0618	1	C12H8+
165.0699	1	C13H9+
167.0856	10	C13H11+
177.0699	1	C14H9+
178.0777	13	C14H10+
179.0855	2	C14H11+
195.0807	1	C14H11O+
222.0681	1	C15H10O2+
223.0754	999	C15H11O2+
