Mass spectrum: Alachlor; LC-ESI-QFT; MS2; CE: 90; R=17500; [M+H]+
Name: Alachlor
Name: 2-chloro-N-(2,6-diethylphenyl)-N-(methoxymethyl)acetamide
Formula: C14H20ClNO2
Exact mass: 269.1183
SMILES: CCC1=CC=CC(CC)=C1N(COC)C(=O)CCl
InChI: InChI=1S/C14H20ClNO2/c1-4-11-7-6-8-12(5-2)14(11)16(10-18-3)13(17)9-15/h6-8H,4-5,9-10H2,1-3H3
Instrument: Q Exactive Orbitrap (Thermo Scientific)
Instrument type: LC-ESI-QFT
Ms type: MS2
Ion mode: POSITIVE
Ionization: ESI
Fragmentation mode: HCD
Collision energy: 90
Resolution: 17500
Column name: Acquity BEH C18 1.7um, 2.1x150mm (Waters)
Retention time: 18.208 min
Base peak: 79.0211
Precursor m/z: 270.1255
Precursor type: [M+H]+
Precursor intensity: 1038394.3125
m/z	relative intensity	assigned
76.9789	62	C2H2ClO+
90.0105	88	C3H5ClN+
91.0543	108	C7H7+
95.0128	999	C5H3O2+
105.0701	82	C8H9+
115.0545	49	C9H7+
119.073	88	C8H9N+
120.0808	58	C8H10N+
131.0731	55	C9H9N+
132.0808	769	C9H10N+
133.0888	124	C9H11N+
144.0809	102	C10H10N+
146.0966	204	C10H12N+
147.1042	394	C10H13N+
162.1281	74	C11H16N+
