Mass spectrum: 2-Hydroxy-3-phenoxypropyl prop-2-enoate; LC-ESI-QFT; MS2; CE: 90; R=17500; [M-H]-
Name: 2-Hydroxy-3-phenoxypropyl prop-2-enoate
Name: 2-Hydroxy-3-phenoxypropyl acrylate
Name: (2-hydroxy-3-phenoxypropyl) prop-2-enoate
Formula: C12H14O4
Exact mass: 222.0892
SMILES: OC(COC(=O)C=C)COC1=CC=CC=C1
InChI: InChI=1S/C12H14O4/c1-2-12(14)16-9-10(13)8-15-11-6-4-3-5-7-11/h2-7,10,13H,1,8-9H2
Instrument: Q Exactive Orbitrap (Thermo Scientific)
Instrument type: LC-ESI-QFT
Ms type: MS2
Ion mode: NEGATIVE
Ionization: ESI
Fragmentation mode: HCD
Collision energy: 90
Resolution: 17500
Column name: Acquity BEH C18 1.7um, 2.1x150mm (Waters)
Retention time: 16.054 min
Base peak: 221.0818
Precursor m/z: 221.0819
Precursor type: [M-H]-
Precursor intensity: 34751075.95313
m/z	relative intensity	assigned
57.0346	142	C3H5O-
65.0397	3	C5H5-
73.0659	6	C4H9O-
75.0241	999	C6H3-
77.0395	2	C6H5-
91.0187	2	C6H3O-
93.0346	27	C6H5O-
103.019	39	C7H3O-
108.0217	4	C6H4O2-
119.0139	17	C7H3O2-
121.0295	190	C7H5O2-
147.0088	17	C8H3O3-
165.02	4	C8H5O4-
