Mass spectrum: Salicylic acid; LC-ESI-QFT; MS2; CE: 75; R=17500; [M-H]-
Name: Salicylic acid
Name: 2-hydroxybenzoic acid
Formula: C7H6O3
Exact mass: 138.0317
SMILES: OC(=O)C1=C(O)C=CC=C1
InChI: InChI=1S/C7H6O3/c8-6-4-2-1-3-5(6)7(9)10/h1-4,8H,(H,9,10)
Instrument: Q Exactive Orbitrap (Thermo Scientific)
Instrument type: LC-ESI-QFT
Ms type: MS2
Ion mode: NEGATIVE
Ionization: ESI
Fragmentation mode: HCD
Collision energy: 75
Resolution: 17500
Column name: Acquity BEH C18 1.7um, 2.1x150mm (Waters)
Retention time: 14.935 min
Base peak: 137.0245
Precursor m/z: 137.0244
Precursor type: [M-H]-
Precursor intensity: 15447569.49609
m/z	relative intensity	assigned
65.0397	75	C5H5-
67.019	1	C4H3O-
75.0241	4	C6H3-
80.0267	1	C5H4O-
93.0346	999	C6H5O-
137.0246	1	C7H5O3-
