Mass spectrum: 3,3`-Sulphonyldianiline; LC-ESI-QFT; MS2; CE: 45; R=17500; [M+H]+
Name: 3,3'-Sulphonyldianiline
Name: 3,3'-Sulfonyldianiline
Name: 3-(3-aminophenyl)sulfonylaniline
Formula: C12H12N2O2S
Exact mass: 248.0619
SMILES: NC1=CC=CC(=C1)S(=O)(=O)C1=CC(N)=CC=C1
InChI: InChI=1S/C12H12N2O2S/c13-9-3-1-5-11(7-9)17(15,16)12-6-2-4-10(14)8-12/h1-8H,13-14H2
Instrument: Q Exactive Orbitrap (Thermo Scientific)
Instrument type: LC-ESI-QFT
Ms type: MS2
Ion mode: POSITIVE
Ionization: ESI
Fragmentation mode: HCD
Collision energy: 45
Resolution: 17500
Column name: Acquity BEH C18 1.7um, 2.1x150mm (Waters)
Retention time: 10.897 min
Base peak: 79.0212
Precursor m/z: 249.0692
Precursor type: [M+H]+
Precursor intensity: 4623940.40625
m/z	relative intensity	assigned
53.0022	3	C3HO+
53.0386	8	C4H5+
54.0338	7	C3H4N+
55.0178	10	C3H3O+
61.0106	1	C2H5S+
65.0385	51	C5H5+
67.0178	2	C4H3O+
67.0417	1	C4H5N+
68.0494	164	C4H6N+
69.0334	12	C4H5O+
78.0338	20	C5H4N+
79.0178	25	C5H3O+
80.0494	9	C5H6N+
82.0287	4	C4H4NO+
92.0495	404	C6H6N+
93.0573	151	C6H7N+
95.0366	5	C5H5NO+
96.0444	24	C5H6NO+
108.0444	999	C6H6NO+
109.0521	2	C6H7NO+
110.06	116	C6H8NO+
120.0556	25	C8H8O+
124.0755	1	C7H10NO+
128.9863	1	C4H3NO2S+
140.0164	2	C6H6NOS+
141.0198	1	C9H3NO+
156.0113	461	C6H6NO2S+
249.0691	9	C12H13N2O2S+
