Mass spectrum: Melatonin; LC-ESI-QFT; MS2; CE: 30; R=17500; [M-H]-
Name: Melatonin
Formula: C13H16N2O2
Exact mass: 232.1212
SMILES: COC1=CC2=C(NC=C2CCNC(C)=O)C=C1
InChI: InChI=1S/C13H16N2O2/c1-9(16)14-6-5-10-8-15-13-4-3-11(17-2)7-12(10)13/h3-4,7-8,15H,5-6H2,1-2H3,(H,14,16)
Instrument: Q Exactive Orbitrap (Thermo Scientific)
Instrument type: LC-ESI-QFT
Ms type: MS2
Ion mode: NEGATIVE
Ionization: ESI
Fragmentation mode: HCD
Collision energy: 30
Resolution: 17500
Column name: Acquity BEH C18 1.7um, 2.1x150mm (Waters)
Retention time: 13.547 min
Base peak: 112.9857
Precursor m/z: 231.1139
Precursor type: [M-H]-
Precursor intensity: 617062.8759766
m/z	relative intensity	assigned
58.0298	52	C2H4NO-
144.0455	232	C9H6NO-
145.0535	11	C9H7NO-
147.0331	6	C8H5NO2-
159.0323	11	C9H5NO2-
160.0407	11	C9H6NO2-
216.0904	999	C12H12N2O2-
231.1139	180	C13H15N2O2-
