Mass spectrum: 3,3`-Sulphonyldianiline; LC-ESI-QFT; MS2; CE: 60; R=17500; [M+H]+
Name: 3,3'-Sulphonyldianiline
Name: 3,3'-Sulfonyldianiline
Name: 3-(3-aminophenyl)sulfonylaniline
Formula: C12H12N2O2S
Exact mass: 248.0619
SMILES: NC1=CC=CC(=C1)S(=O)(=O)C1=CC(N)=CC=C1
InChI: InChI=1S/C12H12N2O2S/c13-9-3-1-5-11(7-9)17(15,16)12-6-2-4-10(14)8-12/h1-8H,13-14H2
Instrument: Q Exactive Orbitrap (Thermo Scientific)
Instrument type: LC-ESI-QFT
Ms type: MS2
Ion mode: POSITIVE
Ionization: ESI
Fragmentation mode: HCD
Collision energy: 60
Resolution: 17500
Column name: Acquity BEH C18 1.7um, 2.1x150mm (Waters)
Retention time: 10.897 min
Base peak: 79.0212
Precursor m/z: 249.0692
Precursor type: [M+H]+
Precursor intensity: 5647482.75
m/z	relative intensity	assigned
53.0022	4	C3HO+
53.0386	5	C4H5+
54.0338	5	C3H4N+
55.0179	7	C3H3O+
61.0107	2	C2H5S+
65.0385	233	C5H5+
66.0464	5	C5H6+
67.0178	2	C4H3O+
67.0417	1	C4H5N+
68.0494	127	C4H6N+
69.0335	8	C4H5O+
70.0286	1	C3H4NO+
74.0964	1	C4H12N+
78.0338	15	C5H4N+
79.0178	22	C5H3O+
80.0494	53	C5H6N+
82.0288	3	C4H4NO+
92.0495	629	C6H6N+
93.0573	224	C6H7N+
95.0366	4	C5H5NO+
96.0443	20	C5H6NO+
108.0444	999	C6H6NO+
109.0522	4	C6H7NO+
110.06	216	C6H8NO+
120.0556	21	C8H8O+
124.0757	2	C7H10NO+
128.9862	1	C4H3NO2S+
140.0162	3	C6H6NOS+
141.0195	1	C9H3NO+
156.0113	62	C6H6NO2S+
