Mass spectrum: 2-Butyl-1H-isoindole-1,3(2H)-dione; LC-ESI-QFT; MS2; CE: 15; R=17500; [M+H]+
Name: 2-Butyl-1H-isoindole-1,3(2H)-dione
Name: N-Butylphthalimide
Name: 2-butylisoindole-1,3-dione
Formula: C12H13NO2
Exact mass: 203.0946
SMILES: CCCCN1C(=O)C2=C(C=CC=C2)C1=O
InChI: InChI=1S/C12H13NO2/c1-2-3-8-13-11(14)9-6-4-5-7-10(9)12(13)15/h4-7H,2-3,8H2,1H3
Instrument: Q Exactive Orbitrap (Thermo Scientific)
Instrument type: LC-ESI-QFT
Ms type: MS2
Ion mode: POSITIVE
Ionization: ESI
Fragmentation mode: HCD
Collision energy: 15
Resolution: 17500
Column name: Acquity BEH C18 1.7um, 2.1x150mm (Waters)
Retention time: 16.296 min
Base peak: 79.0211
Precursor m/z: 204.1019
Precursor type: [M+H]+
Precursor intensity: 32290960.5
m/z	relative intensity	assigned
160.1121	1	C11H14N+
176.1066	1	C11H14NO+
189.0781	2	C11H11NO2+
204.1017	999	C12H14NO2+
