Mass spectrum: 2,5-Dichlorophenol; LC-ESI-QFT; MS2; CE: 15; R=17500; [M+H]+
Name: 2,5-Dichlorophenol
Formula: C6H4Cl2O
Exact mass: 161.9639
SMILES: OC1=CC(Cl)=CC=C1Cl
InChI: InChI=1S/C6H4Cl2O/c7-4-1-2-5(8)6(9)3-4/h1-3,9H
Instrument: Q Exactive Orbitrap (Thermo Scientific)
Instrument type: LC-ESI-QFT
Ms type: MS2
Ion mode: POSITIVE
Ionization: ESI
Fragmentation mode: HCD
Collision energy: 15
Resolution: 17500
Column name: Acquity BEH C18 1.7um, 2.1x150mm (Waters)
Retention time: 25.354 min
Base peak: 79.0211
Precursor m/z: 162.9712
Precursor type: [M+H]+
Precursor intensity: 1992212.328125
m/z	relative intensity	assigned
84.9597	999	CH3Cl2+
102.9703	126	CH5Cl2O+
131.9512	2	C5H2Cl2+
132.9608	36	C5H3Cl2+
148.9558	37	C5H3Cl2O+
150.9715	20	C5H5Cl2O+
