Mass spectrum: Melatonin; LC-ESI-QFT; MS2; CE: 45; R=17500; [M-H]-
Name: Melatonin
Formula: C13H16N2O2
Exact mass: 232.1212
SMILES: COC1=CC2=C(NC=C2CCNC(C)=O)C=C1
InChI: InChI=1S/C13H16N2O2/c1-9(16)14-6-5-10-8-15-13-4-3-11(17-2)7-12(10)13/h3-4,7-8,15H,5-6H2,1-2H3,(H,14,16)
Instrument: Q Exactive Orbitrap (Thermo Scientific)
Instrument type: LC-ESI-QFT
Ms type: MS2
Ion mode: NEGATIVE
Ionization: ESI
Fragmentation mode: HCD
Collision energy: 45
Resolution: 17500
Column name: Acquity BEH C18 1.7um, 2.1x150mm (Waters)
Retention time: 13.551 min
Base peak: 112.9857
Precursor m/z: 231.1139
Precursor type: [M-H]-
Precursor intensity: 463674.4741211
m/z	relative intensity	assigned
58.0298	112	C2H4NO-
84.0456	12	C4H6NO-
144.0455	999	C9H6NO-
145.0531	73	C9H7NO-
147.0329	28	C8H5NO2-
159.0325	46	C9H5NO2-
216.0904	473	C12H12N2O2-
