Mass spectrum: N-(Butoxymethyl)acrylamide; LC-ESI-QFT; MS2; CE: 60; R=17500; [M+H]+
Name: N-(Butoxymethyl)acrylamide
Name: N-(butoxymethyl)prop-2-enamide
Formula: C8H15NO2
Exact mass: 157.1103
SMILES: CCCCOCNC(=O)C=C
InChI: InChI=1S/C8H15NO2/c1-3-5-6-11-7-9-8(10)4-2/h4H,2-3,5-7H2,1H3,(H,9,10)
Instrument: Q Exactive Orbitrap (Thermo Scientific)
Instrument type: LC-ESI-QFT
Ms type: MS2
Ion mode: POSITIVE
Ionization: ESI
Fragmentation mode: HCD
Collision energy: 60
Resolution: 17500
Column name: Acquity BEH C18 1.7um, 2.1x150mm (Waters)
Retention time: 28.002 min
Base peak: 79.0211
Precursor m/z: 158.1176
Precursor type: [M+H]+
Precursor intensity: 22874517.32812
m/z	relative intensity	assigned
57.0699	398	C4H9+
58.0651	999	C3H8N+
85.0646	177	C5H9O+
