Mass spectrum: N-(Isobutoxymethyl)acrylamide; LC-ESI-QFT; MS2; CE: 90; R=17500; [M+H]+
Name: N-(Isobutoxymethyl)acrylamide
Name: N-(2-methylpropoxymethyl)prop-2-enamide
Formula: C8H15NO2
Exact mass: 157.1103
SMILES: CC(C)COCNC(=O)C=C
InChI: InChI=1S/C8H15NO2/c1-4-8(10)9-6-11-5-7(2)3/h4,7H,1,5-6H2,2-3H3,(H,9,10)
Instrument: Q Exactive Orbitrap (Thermo Scientific)
Instrument type: LC-ESI-QFT
Ms type: MS2
Ion mode: POSITIVE
Ionization: ESI
Fragmentation mode: HCD
Collision energy: 90
Resolution: 17500
Column name: Acquity BEH C18 1.7um, 2.1x150mm (Waters)
Retention time: 28.002 min
Base peak: 79.0211
Precursor m/z: 158.1176
Precursor type: [M+H]+
Precursor intensity: 28249521.3125
m/z	relative intensity	assigned
57.0699	195	C4H9+
58.0651	999	C3H8N+
85.0648	137	C5H9O+
