Mass spectrum: Dicamba; LC-ESI-QFT; MS2; CE: 30; R=17500; [M-H]-
Name: Dicamba
Name: 3,6-dichloro-2-methoxybenzoic acid
Formula: C8H6Cl2O3
Exact mass: 219.9694
SMILES: COC1=C(Cl)C=CC(Cl)=C1C(O)=O
InChI: InChI=1S/C8H6Cl2O3/c1-13-7-5(10)3-2-4(9)6(7)8(11)12/h2-3H,1H3,(H,11,12)
Instrument: Q Exactive Orbitrap (Thermo Scientific)
Instrument type: LC-ESI-QFT
Ms type: MS2
Ion mode: NEGATIVE
Ionization: ESI
Fragmentation mode: HCD
Collision energy: 30
Resolution: 17500
Column name: Acquity BEH C18 1.7um, 2.1x150mm (Waters)
Retention time: 16.963 min
Base peak: 160.9566
Precursor m/z: 218.9621
Precursor type: [M-H]-
Precursor intensity: 8245191.470703
m/z	relative intensity	assigned
124.98	3	C6H2ClO-
160.9567	999	C6H3Cl2O-
174.9724	1	C7H5Cl2O-
218.962	2	C8H5Cl2O3-
