Mass spectrum: Amitriptyline; LC-ESI-QFT; MS2; CE: 45; R=17500; [M+H]+
Name: Amitriptyline
Name: N,N-dimethyl-3-(2-tricyclo[9.4.0.03,8]pentadeca-1(15),3,5,7,11,13-hexaenylidene)propan-1-amine
Formula: C20H23N
Exact mass: 277.1830
SMILES: CN(C)CCC=C1C2=CC=CC=C2CCC2=C1C=CC=C2
InChI: InChI=1S/C20H23N/c1-21(2)15-7-12-20-18-10-5-3-8-16(18)13-14-17-9-4-6-11-19(17)20/h3-6,8-12H,7,13-15H2,1-2H3
Instrument: Q Exactive Orbitrap (Thermo Scientific)
Instrument type: LC-ESI-QFT
Ms type: MS2
Ion mode: POSITIVE
Ionization: ESI
Fragmentation mode: HCD
Collision energy: 45
Resolution: 17500
Column name: Acquity BEH C18 1.7um, 2.1x150mm (Waters)
Retention time: 15.622 min
Base peak: 79.0211
Precursor m/z: 278.1903
Precursor type: [M+H]+
Precursor intensity: 99293897
m/z	relative intensity	assigned
55.0543	3	C4H7+
58.0651	93	C3H8N+
63.0228	1	C5H3+
65.0386	3	C5H5+
67.0542	1	C5H7+
69.0698	4	C5H9+
70.0651	36	C4H8N+
72.0807	18	C4H10N+
77.0384	1	C6H5+
79.0542	8	C6H7+
84.0808	296	C5H10N+
85.0886	23	C5H11N+
91.0543	999	C7H7+
103.0543	11	C8H7+
105.0699	661	C8H9+
115.0542	27	C9H7+
117.0699	959	C9H9+
119.0856	19	C9H11+
128.0621	3	C10H8+
129.0699	131	C10H9+
131.0856	114	C10H11+
141.0699	110	C11H9+
142.0778	1	C11H10+
143.0856	64	C11H11+
153.0701	5	C12H9+
154.0777	5	C12H10+
155.0856	203	C12H11+
165.07	4	C13H9+
167.0856	3	C13H11+
169.1012	203	C13H13+
178.0778	162	C14H10+
179.0856	118	C14H11+
189.0696	3	C15H9+
190.077	2	C15H10+
191.0856	521	C15H11+
192.0935	28	C15H12+
193.1012	126	C15H13+
202.0778	3	C16H10+
203.0857	35	C16H11+
204.0935	80	C16H12+
205.1013	243	C16H13+
207.1169	24	C16H15+
216.0934	3	C17H12+
217.1012	6	C17H13+
218.1091	213	C17H14+
219.1169	577	C17H15+
231.1168	15	C18H15+
232.1245	4	C18H16+
233.1325	347	C18H17+
247.1481	18	C19H19+
250.1591	683	C18H20N+
278.1904	230	C20H24N+
