Mass spectrum: 2-Butyl-1H-isoindole-1,3(2H)-dione; LC-ESI-QFT; MS2; CE: 60; R=17500; [M+H]+
Name: 2-Butyl-1H-isoindole-1,3(2H)-dione
Name: N-Butylphthalimide
Name: 2-butylisoindole-1,3-dione
Formula: C12H13NO2
Exact mass: 203.0946
SMILES: CCCCN1C(=O)C2=C(C=CC=C2)C1=O
InChI: InChI=1S/C12H13NO2/c1-2-3-8-13-11(14)9-6-4-5-7-10(9)12(13)15/h4-7H,2-3,8H2,1H3
Instrument: Q Exactive Orbitrap (Thermo Scientific)
Instrument type: LC-ESI-QFT
Ms type: MS2
Ion mode: POSITIVE
Ionization: ESI
Fragmentation mode: HCD
Collision energy: 60
Resolution: 17500
Column name: Acquity BEH C18 1.7um, 2.1x150mm (Waters)
Retention time: 16.296 min
Base peak: 79.0211
Precursor m/z: 204.1019
Precursor type: [M+H]+
Precursor intensity: 29449087.25
m/z	relative intensity	assigned
53.0386	1	C4H5+
55.0417	1	C3H5N+
56.0494	3	C3H6N+
67.0177	10	C4H3O+
67.0542	5	C5H7+
68.0494	1	C4H6N+
70.065	25	C4H8N+
72.0443	3	C3H6NO+
77.0384	1	C6H5+
79.0541	9	C6H7+
81.0699	1	C6H9+
82.065	2	C5H8N+
91.0542	43	C7H7+
93.0696	1	C7H9+
94.0651	3	C6H8N+
95.0492	2	C6H7O+
96.0443	3	C5H6NO+
103.0541	47	C8H7+
104.0493	2	C7H6N+
104.0618	2	C8H8+
105.0698	44	C8H9+
106.0651	6	C7H8N+
107.049	2	C7H7O+
107.0728	2	C7H9N+
107.0855	6	C8H11+
108.0808	1	C7H10N+
109.0646	1	C7H9O+
115.0542	33	C9H7+
116.062	33	C9H8+
117.0572	51	C8H7N+
117.0697	34	C9H9+
118.065	78	C8H8N+
119.0728	5	C8H9N+
119.0853	4	C9H11+
120.0807	13	C8H10N+
121.0885	15	C8H11N+
122.0597	1	C7H8NO+
122.0963	1	C8H12N+
123.068	1	C7H9NO+
128.0619	3	C10H8+
129.0699	5	C10H9+
130.0651	68	C9H8N+
131.0491	21	C9H7O+
131.0729	74	C9H9N+
132.0569	11	C9H8O+
132.0807	146	C9H10N+
133.0885	154	C9H11N+
134.0599	4	C8H8NO+
134.0963	16	C9H12N+
135.0802	1	C9H11O+
136.0756	12	C8H10NO+
137.0832	1	C8H11NO+
138.0914	9	C8H12NO+
143.0729	10	C10H9N+
144.0807	230	C10H10N+
145.0885	196	C10H11N+
146.0599	9	C9H8NO+
146.0963	73	C10H12N+
147.0679	8	C9H9NO+
147.104	10	C10H13N+
148.1119	706	C10H14N+
158.0963	71	C11H12N+
159.0439	15	C10H7O2+
159.1042	48	C11H13N+
160.0756	36	C10H10NO+
160.112	133	C11H14N+
161.0834	273	C10H11NO+
162.0912	21	C10H12NO+
164.0702	14	C9H10NO2+
174.0912	12	C11H12NO+
175.0991	9	C11H13NO+
176.1068	134	C11H14NO+
186.0913	3	C12H12NO+
187.0987	2	C12H13NO+
188.0704	46	C11H10NO2+
189.0782	90	C11H11NO2+
202.0862	3	C12H12NO2+
203.0938	2	C12H13NO2+
204.1017	999	C12H14NO2+
