Mass spectrum: Daidzein; LC-ESI-QFT; MS2; CE: 75; R=17500; [M-H]-
Name: Daidzein
Formula: C15H10O4
Exact mass: 254.0579
SMILES: OC1=CC=C(C=C1)C1=COC2=C(C=CC(O)=C2)C1=O
InChI: InChI=1S/C15H10O4/c16-10-3-1-9(2-4-10)13-8-19-14-7-11(17)5-6-12(14)15(13)18/h1-8,16-17H
Instrument: Q Exactive Orbitrap (Thermo Scientific)
Instrument type: LC-ESI-QFT
Ms type: MS2
Ion mode: NEGATIVE
Ionization: ESI
Fragmentation mode: HCD
Collision energy: 75
Resolution: 17500
Column name: Acquity BEH C18 1.7um, 2.1x150mm (Waters)
Retention time: 17.857 min
Base peak: 253.0506
Precursor m/z: 253.0506
Precursor type: [M-H]-
Precursor intensity: 45163640.35547
m/z	relative intensity	assigned
55.0189	3	C3H3O-
61.0084	2	C5H-
62.0164	1	C5H2-
63.024	999	C5H3-
63.9955	4	C4O-
65.0033	508	C4HO-
67.019	2	C4H3O-
68.9982	1	C3HO2-
77.0033	1	C5HO-
79.0189	26	C5H3O-
83.0139	37	C4H3O2-
89.0033	70	C6HO-
91.0191	2	C6H3O-
95.0137	1	C5H3O2-
101.0397	141	C8H5-
103.0189	1	C7H3O-
104.0267	1	C7H4O-
107.0139	145	C6H3O2-
115.0553	58	C9H7-
117.0346	14	C8H5O-
119.0502	222	C8H7O-
121.0296	9	C7H5O2-
127.0553	4	C10H7-
129.0344	2	C9H5O-
132.0214	1	C8H4O2-
135.0086	1	C7H3O3-
138.0474	2	C11H6-
139.0553	33	C11H7-
141.0347	4	C10H5O-
141.071	6	C11H9-
143.0502	355	C10H7O-
145.0295	194	C9H5O2-
148.0165	5	C8H4O3-
151.0036	24	C7H3O4-
151.0553	2	C12H7-
152.0631	6	C12H8-
153.0709	7	C12H9-
155.0502	28	C11H7O-
157.0659	9	C11H9O-
165.071	30	C13H9-
167.0503	44	C12H7O-
169.0659	5	C12H9O-
180.0581	15	C13H8O-
181.066	24	C13H9O-
183.0448	7	C12H7O2-
185.0606	11	C12H9O2-
187.0405	1	C11H7O3-
191.0503	1	C14H7O-
195.0457	1	C13H7O2-
197.0607	5	C13H9O2-
208.0532	8	C14H8O2-
209.0609	16	C14H9O2-
211.0398	5	C13H7O3-
224.048	2	C14H8O3-
225.0559	2	C14H9O3-
253.0506	48	C15H9O4-
