Mass spectrum: Metolachlor; LC-ESI-QFT; MS2; CE: 60; R=17500; [M+H]+
Name: Metolachlor
Name: 2-chloro-N-(2-ethyl-6-methylphenyl)-N-(1-methoxypropan-2-yl)acetamide
Formula: C15H22ClNO2
Exact mass: 283.1339
SMILES: CCC1=C(N(C(C)COC)C(=O)CCl)C(C)=CC=C1
InChI: InChI=1S/C15H22ClNO2/c1-5-13-8-6-7-11(2)15(13)17(14(18)9-16)12(3)10-19-4/h6-8,12H,5,9-10H2,1-4H3
Instrument: Q Exactive Orbitrap (Thermo Scientific)
Instrument type: LC-ESI-QFT
Ms type: MS2
Ion mode: POSITIVE
Ionization: ESI
Fragmentation mode: HCD
Collision energy: 60
Resolution: 17500
Column name: Acquity BEH C18 1.7um, 2.1x150mm (Waters)
Retention time: 18.173 min
Base peak: 79.0211
Precursor m/z: 284.1412
Precursor type: [M+H]+
Precursor intensity: 22108123.75
m/z	relative intensity	assigned
53.0022	6	C3HO+
56.0495	4	C3H6N+
65.0387	1	C5H5+
69.0698	1	C5H9+
73.0648	96	C4H9O+
75.9948	1	C2H3ClN+
76.9788	85	C2H2ClO+
79.0541	4	C6H7+
81.0702	1	C6H9+
91.0543	53	C7H7+
93.0573	1	C6H7N+
93.0699	9	C7H9+
103.0544	5	C8H7+
104.0621	2	C8H8+
105.0699	9	C8H9+
106.0651	3	C7H8N+
107.049	4	C7H7O+
107.0728	3	C7H9N+
107.0857	9	C8H11+
108.0808	32	C7H10N+
109.0648	24	C7H9O+
115.0544	5	C9H7+
116.0623	1	C9H8+
117.0572	4	C8H7N+
117.0699	43	C9H9+
118.0651	16	C8H8N+
119.073	27	C8H9N+
119.0856	49	C9H11+
120.0808	50	C8H10N+
121.0648	1	C8H9O+
129.0698	2	C10H9+
130.0651	14	C9H8N+
130.0778	1	C10H10+
131.0731	23	C9H9N+
131.0855	15	C10H11+
132.0808	41	C9H10N+
133.0886	144	C9H11N+
134.0964	390	C9H12N+
135.0805	14	C9H11O+
135.104	2	C9H13N+
136.1121	8	C9H14N+
137.0962	4	C9H13O+
141.07	3	C11H9+
143.0729	33	C10H9N+
143.0857	2	C11H11+
144.0808	33	C10H10N+
145.0887	42	C10H11N+
146.0965	137	C10H12N+
147.0677	3	C9H9NO+
147.1043	29	C10H13N+
148.0755	9	C9H10NO+
148.1121	47	C10H14N+
156.0812	1	C11H10N+
157.089	2	C11H11N+
158.0965	87	C11H12N+
159.1043	46	C11H13N+
159.1167	2	C12H15+
160.1121	138	C11H14N+
161.0835	2	C10H11NO+
161.1201	7	C11H15N+
162.0914	25	C10H12NO+
166.0421	7	C9H9ClN+
174.0915	2	C11H12NO+
174.1277	14	C12H16N+
175.1355	4	C12H17N+
176.1434	999	C12H18N+
178.0417	3	C10H9ClN+
179.0498	1	C10H10ClN+
182.0366	3	C9H9ClNO+
182.0733	3	C10H13ClN+
184.0524	100	C9H11ClNO+
188.1071	8	C12H14NO+
192.0576	4	C11H11ClN+
194.0732	26	C11H13ClN+
196.0525	2	C10H11ClNO+
202.1225	9	C13H16NO+
210.0679	2	C11H13ClNO+
212.0838	28	C11H15ClNO+
224.0837	3	C12H15ClNO+
224.1202	3	C13H19ClN+
252.115	199	C14H19ClNO+
