Mass spectrum: Piperonyl butoxide; LC-ESI-QFT; MS2; CE: 45; R=17500; [M-H]-
Name: Piperonyl butoxide
Name: 5-[2-(2-butoxyethoxy)ethoxymethyl]-6-propyl-1,3-benzodioxole
Formula: C19H30O5
Exact mass: 338.2093
SMILES: CCCCOCCOCCOCC1=CC2=C(OCO2)C=C1CCC
InChI: InChI=1S/C19H30O5/c1-3-5-7-20-8-9-21-10-11-22-14-17-13-19-18(23-15-24-19)12-16(17)6-4-2/h12-13H,3-11,14-15H2,1-2H3
Instrument: Q Exactive Orbitrap (Thermo Scientific)
Instrument type: LC-ESI-QFT
Ms type: MS2
Ion mode: NEGATIVE
Ionization: ESI
Fragmentation mode: HCD
Collision energy: 45
Resolution: 17500
Column name: Acquity BEH C18 1.7um, 2.1x150mm (Waters)
Retention time: 20.612 min
Base peak: 112.9856
Precursor m/z: 337.202
Precursor type: [M-H]-
Precursor intensity: 2981812.521484
m/z	relative intensity	assigned
55.0189	7	C3H3O-
65.0033	17	C4HO-
67.019	19	C4H3O-
68.9981	16	C3HO2-
69.0347	5	C4H5O-
71.0138	17	C3H3O2-
72.9932	23	C2HO3-
81.0346	4	C5H5O-
82.006	15	C4H2O2-
83.0139	20	C4H3O2-
87.0088	15	C3H3O3-
95.0138	15	C5H3O2-
96.9932	10	C4HO3-
97.0296	9	C5H5O2-
99.0089	14	C4H3O3-
110.001	40	C5H2O3-
111.0088	199	C5H3O3-
123.0088	74	C6H3O3-
124.0166	180	C6H4O3-
125.0244	777	C6H5O3-
127.0037	75	C5H3O4-
136.988	149	C6HO4-
138.0323	8	C7H6O3-
139.0037	217	C6H3O4-
140.0116	313	C6H4O4-
141.0194	10	C6H5O4-
151.0036	34	C7H3O4-
154.9988	31	C6H3O5-
166.9987	10	C7H3O5-
168.0065	315	C7H4O5-
169.0143	697	C7H5O5-
337.2022	999	C19H29O5-
