Mass spectrum: Theobromine; LC-ESI-QFT; MS2; CE: 45; R=17500; [M+H]+
Name: Theobromine
Name: 3,7-dimethylpurine-2,6-dione
Formula: C7H8N4O2
Exact mass: 180.0647
SMILES: CN1C=NC2=C1C(=O)NC(=O)N2C
InChI: InChI=1S/C7H8N4O2/c1-10-3-8-5-4(10)6(12)9-7(13)11(5)2/h3H,1-2H3,(H,9,12,13)
Instrument: Q Exactive Orbitrap (Thermo Scientific)
Instrument type: LC-ESI-QFT
Ms type: MS2
Ion mode: POSITIVE
Ionization: ESI
Fragmentation mode: HCD
Collision energy: 45
Resolution: 17500
Column name: Acquity BEH C18 1.7um, 2.1x150mm (Waters)
Retention time: 10.147 min
Base peak: 79.0211
Precursor m/z: 181.072
Precursor type: [M+H]+
Precursor intensity: 2599692.125
m/z	relative intensity	assigned
69.0447	34	C3H5N2+
83.024	2	C3H3N2O+
93.0448	2	C5H5N2+
96.0557	99	C4H6N3+
97.0398	4	C4H5N2O+
108.0556	6	C5H6N3+
110.0714	9	C5H8N3+
120.0556	5	C6H6N3+
121.0284	7	C7H5O2+
122.0589	2	C5H6N4+
124.0506	955	C5H6N3O+
133.0283	4	C6H3N3O+
135.0441	3	C6H5N3O+
137.0822	31	C6H9N4+
142.0612	72	C5H8N3O2+
149.0234	87	C6H3N3O2+
163.039	42	C7H5N3O2+
163.0612	2	C7H7N4O+
167.0563	6	C6H7N4O2+
181.0721	999	C7H9N4O2+
