Mass spectrum: 2,3-Pyridinedicarboxylic acid; LC-ESI-QFT; MS2; CE: 75; R=17500; [M-H]-
Name: 2,3-Pyridinedicarboxylic acid
Name: Quinolinic acid
Formula: C7H5NO4
Exact mass: 167.0219
SMILES: OC(=O)C1=C(N=CC=C1)C(O)=O
InChI: InChI=1S/C7H5NO4/c9-6(10)4-2-1-3-8-5(4)7(11)12/h1-3H,(H,9,10)(H,11,12)
Instrument: Q Exactive Orbitrap (Thermo Scientific)
Instrument type: LC-ESI-QFT
Ms type: MS2
Ion mode: NEGATIVE
Ionization: ESI
Fragmentation mode: HCD
Collision energy: 75
Resolution: 17500
Column name: Acquity BEH C18 1.7um, 2.1x150mm (Waters)
Retention time: 14.715 min
Base peak: 112.9856
Precursor m/z: 166.0146
Precursor type: [M-H]-
Precursor intensity: 257620.7797852
m/z	relative intensity	assigned
108.0217	181	C6H4O2-
122.0248	999	C6H4NO2-
