Mass spectrum: Daidzein; LC-ESI-QFT; MS2; CE: 30; R=17500; [M+H]+
Name: Daidzein
Formula: C15H10O4
Exact mass: 254.0579
SMILES: OC1=CC=C(C=C1)C1=COC2=C(C=CC(O)=C2)C1=O
InChI: InChI=1S/C15H10O4/c16-10-3-1-9(2-4-10)13-8-19-14-7-11(17)5-6-12(14)15(13)18/h1-8,16-17H
Instrument: Q Exactive Orbitrap (Thermo Scientific)
Instrument type: LC-ESI-QFT
Ms type: MS2
Ion mode: POSITIVE
Ionization: ESI
Fragmentation mode: HCD
Collision energy: 30
Resolution: 17500
Column name: Acquity BEH C18 1.7um, 2.1x150mm (Waters)
Retention time: 15.105 min
Base peak: 79.0211
Precursor m/z: 255.0652
Precursor type: [M+H]+
Precursor intensity: 8972409.125
m/z	relative intensity	assigned
137.0233	5	C7H5O3+
187.0559	1	C15H7+
199.0753	8	C13H11O2+
227.0702	5	C14H11O3+
237.054	1	C15H9O3+
255.0652	999	C15H11O4+
