Mass spectrum: Dicyclohexyl phthalate; LC-ESI-QFT; MS2; CE: 45; R=17500; [M-H]-
Name: Dicyclohexyl phthalate
Name: dicyclohexyl benzene-1,2-dicarboxylate
Formula: C20H26O4
Exact mass: 330.1831
SMILES: O=C(OC1CCCCC1)C1=C(C=CC=C1)C(=O)OC1CCCCC1
InChI: InChI=1S/C20H26O4/c21-19(23-15-9-3-1-4-10-15)17-13-7-8-14-18(17)20(22)24-16-11-5-2-6-12-16/h7-8,13-16H,1-6,9-12H2
Instrument: Q Exactive Orbitrap (Thermo Scientific)
Instrument type: LC-ESI-QFT
Ms type: MS2
Ion mode: NEGATIVE
Ionization: ESI
Fragmentation mode: HCD
Collision energy: 45
Resolution: 17500
Column name: Acquity BEH C18 1.7um, 2.1x150mm (Waters)
Retention time: 15.542 min
Base peak: 405.1916
Precursor m/z: 329.1758
Precursor type: [M-H]-
Precursor intensity: 5377419.662109
m/z	relative intensity	assigned
57.0346	72	C3H5O-
59.0139	1	C2H3O2-
69.0346	1	C4H5O-
71.0139	1	C3H3O2-
79.0553	2	C6H7-
81.0346	4	C5H5O-
83.0502	2	C5H7O-
91.0553	1	C7H7-
94.0424	1	C6H6O-
95.0502	9	C6H7O-
96.0217	1	C5H4O2-
97.066	9	C6H9O-
99.0452	3	C5H7O2-
107.0502	19	C7H7O-
107.0866	4	C8H11-
108.0217	1	C6H4O2-
109.0658	123	C7H9O-
111.0451	2	C6H7O2-
111.0814	1	C7H11O-
119.0503	11	C8H7O-
121.0658	11	C8H9O-
121.1022	1	C9H13-
122.0373	78	C7H6O2-
123.0452	62	C7H7O2-
123.0815	141	C8H11O-
124.0168	3	C6H4O3-
125.0242	2	C6H5O3-
125.0608	33	C7H9O2-
133.0657	1	C9H9O-
133.1024	1	C10H13-
135.0452	24	C8H7O2-
135.0816	40	C9H11O-
136.053	110	C8H8O2-
137.0607	999	C8H9O2-
138.0321	11	C7H6O3-
145.0659	1	C10H9O-
146.074	1	C10H10O-
147.0453	2	C9H7O2-
147.0815	6	C10H11O-
148.053	4	C9H8O2-
149.0607	163	C9H9O2-
150.0322	7	C8H6O3-
151.04	37	C8H7O3-
151.0762	2	C9H11O2-
153.0193	1	C7H5O4-
154.0273	11	C7H6O4-
159.0811	1	C11H11O-
161.0608	1	C10H9O2-
161.0972	20	C11H13O-
162.0686	7	C10H10O2-
163.0764	26	C10H11O2-
164.0844	1	C10H12O2-
165.0187	1	C8H5O4-
165.0919	3	C10H13O2-
167.035	7	C8H7O4-
168.0428	22	C8H8O4-
173.0609	1	C11H9O2-
175.0764	5	C11H11O2-
175.1128	22	C12H15O-
176.0842	7	C11H12O2-
177.0918	3	C11H13O2-
179.1079	4	C11H15O2-
187.0767	3	C12H11O2-
187.1124	1	C13H15O-
189.0926	1	C12H13O2-
191.0715	1	C11H11O3-
191.1077	2	C12H15O2-
201.092	1	C13H13O2-
203.1075	3	C13H15O2-
205.123	2	C13H17O2-
229.1239	1	C15H17O2-
233.118	2	C14H17O3-
256.1094	1	C16H16O3-
257.1548	16	C17H21O2-
257.1899	1	C18H25O-
259.1338	16	C16H19O3-
269.1545	1	C18H21O2-
271.134	24	C17H19O3-
285.1496	2	C18H21O3-
287.1651	1	C18H23O3-
301.1812	1	C19H25O3-
311.1653	40	C20H23O3-
329.1758	45	C20H25O4-
