Mass spectrum: (4-Methylphenoxy) acetic acid ethyl ester; LC-ESI-QFT; MS2; CE: 60; R=17500; [M-H]-
Name: (4-Methylphenoxy) acetic acid ethyl ester
Name: Ethyl (4-methylphenoxy)acetate
Formula: C11H14O3
Exact mass: 194.0943
SMILES: CCOC(=O)COC1=CC=C(C)C=C1
InChI: InChI=1S/C11H14O3/c1-3-13-11(12)8-14-10-6-4-9(2)5-7-10/h4-7H,3,8H2,1-2H3
Instrument: Q Exactive Orbitrap (Thermo Scientific)
Instrument type: LC-ESI-QFT
Ms type: MS2
Ion mode: NEGATIVE
Ionization: ESI
Fragmentation mode: HCD
Collision energy: 60
Resolution: 17500
Column name: Acquity BEH C18 1.7um, 2.1x150mm (Waters)
Retention time: 17.576 min
Base peak: 193.0869
Precursor m/z: 193.087
Precursor type: [M-H]-
Precursor intensity: 54892463.59473
m/z	relative intensity	assigned
65.0033	1	C4HO-
65.0397	1	C5H5-
67.0189	2	C4H3O-
68.9983	9	C3HO2-
69.0346	9	C4H5O-
70.006	7	C3H2O2-
71.0139	5	C3H3O2-
71.0502	71	C4H7O-
72.9931	3	C2HO3-
73.0658	5	C4H9O-
78.0111	2	C5H2O-
79.0189	7	C5H3O-
79.9903	3	C4O2-
80.9981	3	C4HO2-
82.006	37	C4H2O2-
83.014	1	C4H3O2-
86.0011	1	C3H2O3-
91.019	60	C6H3O-
92.0268	325	C6H4O-
93.0345	999	C6H5O-
95.0138	364	C5H3O2-
97.0296	4	C5H5O2-
98.0011	1	C4H2O3-
106.006	20	C6H2O2-
106.0424	1	C7H6O-
107.0139	2	C6H3O2-
108.0217	343	C6H4O2-
109.0294	2	C6H5O2-
119.0138	16	C7H3O2-
121.0295	27	C7H5O2-
123.0088	48	C6H3O3-
136.0165	308	C7H4O3-
137.0244	228	C7H5O3-
193.0869	64	C11H13O3-
