Mass spectrum: Piperonyl butoxide; LC-ESI-QFT; MS2; CE: 30; R=17500; [M-H]-
Name: Piperonyl butoxide
Name: 5-[2-(2-butoxyethoxy)ethoxymethyl]-6-propyl-1,3-benzodioxole
Formula: C19H30O5
Exact mass: 338.2093
SMILES: CCCCOCCOCCOCC1=CC2=C(OCO2)C=C1CCC
InChI: InChI=1S/C19H30O5/c1-3-5-7-20-8-9-21-10-11-22-14-17-13-19-18(23-15-24-19)12-16(17)6-4-2/h12-13H,3-11,14-15H2,1-2H3
Instrument: Q Exactive Orbitrap (Thermo Scientific)
Instrument type: LC-ESI-QFT
Ms type: MS2
Ion mode: NEGATIVE
Ionization: ESI
Fragmentation mode: HCD
Collision energy: 30
Resolution: 17500
Column name: Acquity BEH C18 1.7um, 2.1x150mm (Waters)
Retention time: 20.612 min
Base peak: 112.9856
Precursor m/z: 337.202
Precursor type: [M-H]-
Precursor intensity: 2428427.742188
m/z	relative intensity	assigned
111.0088	4	C5H3O3-
123.0089	1	C6H3O3-
124.0169	8	C6H4O3-
125.0244	20	C6H5O3-
127.0038	1	C5H3O4-
136.9882	2	C6HO4-
139.0038	4	C6H3O4-
140.0116	6	C6H4O4-
151.0037	1	C7H3O4-
166.9988	7	C7H3O5-
168.0066	27	C7H4O5-
169.0143	69	C7H5O5-
337.2022	999	C19H29O5-
