Mass spectrum: Dicyclohexyl phthalate; LC-ESI-QFT; MS2; CE: 60; R=17500; [M-H]-
Name: Dicyclohexyl phthalate
Name: dicyclohexyl benzene-1,2-dicarboxylate
Formula: C20H26O4
Exact mass: 330.1831
SMILES: O=C(OC1CCCCC1)C1=C(C=CC=C1)C(=O)OC1CCCCC1
InChI: InChI=1S/C20H26O4/c21-19(23-15-9-3-1-4-10-15)17-13-7-8-14-18(17)20(22)24-16-11-5-2-6-12-16/h7-8,13-16H,1-6,9-12H2
Instrument: Q Exactive Orbitrap (Thermo Scientific)
Instrument type: LC-ESI-QFT
Ms type: MS2
Ion mode: NEGATIVE
Ionization: ESI
Fragmentation mode: HCD
Collision energy: 60
Resolution: 17500
Column name: Acquity BEH C18 1.7um, 2.1x150mm (Waters)
Retention time: 15.542 min
Base peak: 405.1916
Precursor m/z: 329.1758
Precursor type: [M-H]-
Precursor intensity: 6143049.116211
m/z	relative intensity	assigned
57.0345	137	C3H5O-
59.0139	2	C2H3O2-
69.0346	3	C4H5O-
71.0138	2	C3H3O2-
73.0294	1	C3H5O2-
79.0553	4	C6H7-
80.0267	2	C5H4O-
81.0346	9	C5H5O-
83.0501	3	C5H7O-
91.0553	7	C7H7-
93.0345	7	C6H5O-
93.071	3	C7H9-
94.0425	7	C6H6O-
95.0139	2	C5H3O2-
95.0502	33	C6H7O-
96.0216	1	C5H4O2-
97.0659	27	C6H9O-
99.0451	3	C5H7O2-
106.0424	1	C7H6O-
107.0503	61	C7H7O-
107.0866	9	C8H11-
108.0217	10	C6H4O2-
109.0659	179	C7H9O-
111.045	3	C6H7O2-
111.0814	4	C7H11O-
119.0502	43	C8H7O-
120.0581	2	C8H8O-
121.0296	3	C7H5O2-
121.0659	24	C8H9O-
121.1024	1	C9H13-
122.0373	301	C7H6O2-
123.0452	100	C7H7O2-
123.0815	185	C8H11O-
124.0165	16	C6H4O3-
125.0608	26	C7H9O2-
131.0498	1	C9H7O-
133.0658	4	C9H9O-
133.1023	2	C10H13-
134.0373	2	C8H6O2-
135.0453	40	C8H7O2-
135.0816	48	C9H11O-
136.053	132	C8H8O2-
137.0608	999	C8H9O2-
138.0322	10	C7H6O3-
145.0658	4	C10H9O-
146.0737	4	C10H10O-
147.0451	14	C9H7O2-
147.0814	12	C10H11O-
148.053	17	C9H8O2-
149.0607	439	C9H9O2-
150.0323	6	C8H6O3-
150.0685	3	C9H10O2-
151.04	35	C8H7O3-
151.0765	4	C9H11O2-
153.0195	3	C7H5O4-
154.0272	40	C7H6O4-
159.0451	2	C10H7O2-
159.0813	5	C11H11O-
161.0611	5	C10H9O2-
161.0972	30	C11H13O-
162.0686	12	C10H10O2-
163.0765	25	C10H11O2-
164.0842	2	C10H12O2-
165.0195	1	C8H5O4-
165.093	1	C10H13O2-
167.0348	7	C8H7O4-
168.0428	21	C8H8O4-
173.0609	1	C11H9O2-
173.0969	1	C12H13O-
175.0767	6	C11H11O2-
175.1128	19	C12H15O-
176.0842	8	C11H12O2-
177.0921	3	C11H13O2-
179.1077	1	C11H15O2-
187.0765	6	C12H11O2-
187.1126	3	C13H15O-
189.0929	1	C12H13O2-
191.0713	2	C11H11O3-
201.0921	1	C13H13O2-
214.0998	2	C14H14O2-
229.1237	2	C15H17O2-
231.1394	1	C15H19O2-
241.1247	1	C16H17O2-
242.1309	1	C16H18O2-
256.1109	2	C16H16O3-
257.1548	4	C17H21O2-
259.134	1	C16H19O3-
271.1341	15	C17H19O3-
285.1498	2	C18H21O3-
311.1665	2	C20H23O3-
