Mass spectrum: Melatonin; LC-ESI-QFT; MS2; CE: 45; R=17500; [M+H]+
Name: Melatonin
Formula: C13H16N2O2
Exact mass: 232.1212
SMILES: COC1=CC2=C(NC=C2CCNC(C)=O)C=C1
InChI: InChI=1S/C13H16N2O2/c1-9(16)14-6-5-10-8-15-13-4-3-11(17-2)7-12(10)13/h3-4,7-8,15H,5-6H2,1-2H3,(H,14,16)
Instrument: Q Exactive Orbitrap (Thermo Scientific)
Instrument type: LC-ESI-QFT
Ms type: MS2
Ion mode: POSITIVE
Ionization: ESI
Fragmentation mode: HCD
Collision energy: 45
Resolution: 17500
Column name: Acquity BEH C18 1.7um, 2.1x150mm (Waters)
Retention time: 13.555 min
Base peak: 79.0211
Precursor m/z: 233.1285
Precursor type: [M+H]+
Precursor intensity: 7965662.75
m/z	relative intensity	assigned
86.06	5	C4H8NO+
91.0542	1	C7H7+
115.0544	2	C9H7+
117.0698	3	C9H9+
118.0652	1	C8H8N+
129.0698	1	C10H9+
130.0654	1	C9H8N+
131.073	9	C9H9N+
142.0652	6	C10H8N+
143.073	34	C10H9N+
144.0808	11	C10H10N+
145.0647	1	C10H9O+
146.0964	3	C10H12N+
147.0804	5	C10H11O+
148.076	1	C9H10NO+
155.0726	1	C11H9N+
156.0806	1	C11H10N+
158.0601	1	C10H8NO+
159.0679	130	C10H9NO+
160.0757	1	C10H10NO+
162.0912	4	C10H12NO+
170.0965	2	C12H12N+
173.0837	4	C11H11NO+
174.0914	999	C11H12NO+
183.068	1	C12H9NO+
186.0543	1	C11H8NO2+
188.1069	4	C12H14NO+
198.0915	12	C13H12NO+
201.0786	2	C12H11NO2+
204.1024	2	C12H14NO2+
216.102	41	C13H14NO2+
