Mass spectrum: Amitriptyline; LC-ESI-QFT; MS2; CE: 75; R=17500; [M+H]+
Name: Amitriptyline
Name: N,N-dimethyl-3-(2-tricyclo[9.4.0.03,8]pentadeca-1(15),3,5,7,11,13-hexaenylidene)propan-1-amine
Formula: C20H23N
Exact mass: 277.1830
SMILES: CN(C)CCC=C1C2=CC=CC=C2CCC2=C1C=CC=C2
InChI: InChI=1S/C20H23N/c1-21(2)15-7-12-20-18-10-5-3-8-16(18)13-14-17-9-4-6-11-19(17)20/h3-6,8-12H,7,13-15H2,1-2H3
Instrument: Q Exactive Orbitrap (Thermo Scientific)
Instrument type: LC-ESI-QFT
Ms type: MS2
Ion mode: POSITIVE
Ionization: ESI
Fragmentation mode: HCD
Collision energy: 75
Resolution: 17500
Column name: Acquity BEH C18 1.7um, 2.1x150mm (Waters)
Retention time: 15.622 min
Base peak: 79.0211
Precursor m/z: 278.1903
Precursor type: [M+H]+
Precursor intensity: 98133837.625
m/z	relative intensity	assigned
53.0386	7	C4H5+
55.0543	4	C4H7+
56.0496	2	C3H6N+
57.0574	1	C3H7N+
58.0651	62	C3H8N+
63.0228	1	C5H3+
65.0385	35	C5H5+
67.0542	2	C5H7+
68.0494	1	C4H6N+
69.0572	1	C4H7N+
70.0651	71	C4H8N+
71.073	1	C4H9N+
72.0807	13	C4H10N+
77.0384	7	C6H5+
79.0542	74	C6H7+
82.0651	2	C5H8N+
84.0808	158	C5H10N+
85.0886	10	C5H11N+
89.0381	1	C7H5+
91.0542	999	C7H7+
103.0542	70	C8H7+
105.0699	378	C8H9+
115.0542	266	C9H7+
116.0621	10	C9H8+
117.0699	632	C9H9+
119.0855	3	C9H11+
127.0544	2	C10H7+
128.062	84	C10H8+
129.0698	150	C10H9+
131.0855	84	C10H11+
141.0698	196	C11H9+
142.0777	5	C11H10+
143.0856	18	C11H11+
152.0622	3	C12H8+
153.0698	44	C12H9+
154.0777	31	C12H10+
155.0855	70	C12H11+
165.0699	35	C13H9+
166.0779	2	C13H10+
167.0856	5	C13H11+
169.1011	17	C13H13+
177.0695	3	C14H9+
178.0777	571	C14H10+
179.0855	112	C14H11+
189.0699	35	C15H9+
190.0778	110	C15H10+
191.0855	917	C15H11+
192.0933	42	C15H12+
193.1012	49	C15H13+
202.0776	48	C16H10+
203.0855	283	C16H11+
204.0934	250	C16H12+
205.1012	83	C16H13+
215.0856	14	C17H11+
216.0933	12	C17H12+
217.1011	109	C17H13+
218.1089	86	C17H14+
219.1168	106	C17H15+
231.1169	4	C18H15+
232.1253	1	C18H16+
233.1323	1	C18H17+
250.159	7	C18H20N+
