Mass spectrum: Theobromine; LC-ESI-QFT; MS2; CE: 60; R=17500; [M+H]+
Name: Theobromine
Name: 3,7-dimethylpurine-2,6-dione
Formula: C7H8N4O2
Exact mass: 180.0647
SMILES: CN1C=NC2=C1C(=O)NC(=O)N2C
InChI: InChI=1S/C7H8N4O2/c1-10-3-8-5-4(10)6(12)9-7(13)11(5)2/h3H,1-2H3,(H,9,12,13)
Instrument: Q Exactive Orbitrap (Thermo Scientific)
Instrument type: LC-ESI-QFT
Ms type: MS2
Ion mode: POSITIVE
Ionization: ESI
Fragmentation mode: HCD
Collision energy: 60
Resolution: 17500
Column name: Acquity BEH C18 1.7um, 2.1x150mm (Waters)
Retention time: 10.147 min
Base peak: 79.0211
Precursor m/z: 181.072
Precursor type: [M+H]+
Precursor intensity: 2427387.9375
m/z	relative intensity	assigned
65.0386	4	C5H5+
69.0447	141	C3H5N2+
79.0543	1	C6H7+
81.0447	5	C4H5N2+
83.0241	14	C3H3N2O+
83.0605	2	C4H7N2+
91.0543	1	C7H7+
93.0336	2	C6H5O+
93.0449	8	C5H5N2+
94.0401	9	C4H4N3+
95.0239	1	C4H3N2O+
95.0493	2	C6H7O+
96.0557	262	C4H6N3+
97.0396	13	C4H5N2O+
108.0557	9	C5H6N3+
109.0273	4	C4H3N3O+
110.0714	12	C5H8N3+
111.0442	2	C6H7O2+
112.0504	1	C4H6N3O+
113.035	2	C4H5N2O2+
120.0557	9	C6H6N3+
121.0284	15	C7H5O2+
121.0397	4	C6H5N2O+
122.0585	4	C5H6N4+
124.0507	999	C5H6N3O+
126.0663	1	C5H8N3O+
133.0285	5	C6H3N3O+
135.0441	8	C6H5N3O+
137.0822	20	C6H9N4+
140.0459	3	C5H6N3O2+
142.0612	108	C5H8N3O2+
149.0234	42	C6H3N3O2+
163.0392	15	C7H5N3O2+
163.0616	5	C7H7N4O+
167.0561	6	C6H7N4O2+
181.0721	248	C7H9N4O2+
