Mass spectrum: 3-Phenoxybenzoic acid; LC-ESI-QFT; MS2; CE: 90; R=17500; [M-H]-
Name: 3-Phenoxybenzoic acid
Formula: C13H10O3
Exact mass: 214.0630
SMILES: OC(=O)C1=CC(OC2=CC=CC=C2)=CC=C1
InChI: InChI=1S/C13H10O3/c14-13(15)10-5-4-8-12(9-10)16-11-6-2-1-3-7-11/h1-9H,(H,14,15)
Instrument: Q Exactive Orbitrap (Thermo Scientific)
Instrument type: LC-ESI-QFT
Ms type: MS2
Ion mode: NEGATIVE
Ionization: ESI
Fragmentation mode: HCD
Collision energy: 90
Resolution: 17500
Column name: Acquity BEH C18 1.7um, 2.1x150mm (Waters)
Retention time: 17.076 min
Base peak: 213.0557
Precursor m/z: 213.0557
Precursor type: [M-H]-
Precursor intensity: 133395636.5879
m/z	relative intensity	assigned
63.024	6	C5H3-
65.0033	73	C4HO-
65.0397	33	C5H5-
67.019	7	C4H3O-
75.0241	2	C6H3-
79.0189	1	C5H3O-
91.019	443	C6H3O-
93.0346	999	C6H5O-
101.0396	4	C8H5-
107.0139	7	C6H3O2-
108.0217	2	C6H4O2-
115.0552	1	C9H7-
119.0502	3	C8H7O-
135.0088	26	C7H3O3-
141.0711	3	C11H9-
143.0503	7	C10H7O-
167.0503	1	C12H7O-
169.0659	4	C12H9O-
