Mass spectrum: 2-Butyl-1H-isoindole-1,3(2H)-dione; LC-ESI-QFT; MS2; CE: 75; R=17500; [M+H]+
Name: 2-Butyl-1H-isoindole-1,3(2H)-dione
Name: N-Butylphthalimide
Name: 2-butylisoindole-1,3-dione
Formula: C12H13NO2
Exact mass: 203.0946
SMILES: CCCCN1C(=O)C2=C(C=CC=C2)C1=O
InChI: InChI=1S/C12H13NO2/c1-2-3-8-13-11(14)9-6-4-5-7-10(9)12(13)15/h4-7H,2-3,8H2,1H3
Instrument: Q Exactive Orbitrap (Thermo Scientific)
Instrument type: LC-ESI-QFT
Ms type: MS2
Ion mode: POSITIVE
Ionization: ESI
Fragmentation mode: HCD
Collision energy: 75
Resolution: 17500
Column name: Acquity BEH C18 1.7um, 2.1x150mm (Waters)
Retention time: 16.296 min
Base peak: 79.0211
Precursor m/z: 204.1019
Precursor type: [M+H]+
Precursor intensity: 23647822.28125
m/z	relative intensity	assigned
53.0386	5	C4H5+
55.0178	3	C3H3O+
55.0417	8	C3H5N+
55.0543	1	C4H7+
56.0495	10	C3H6N+
58.0651	2	C3H8N+
63.0229	2	C5H3+
65.0384	6	C5H5+
67.0178	17	C4H3O+
67.0542	17	C5H7+
68.0495	3	C4H6N+
70.0651	76	C4H8N+
72.0443	11	C3H6NO+
77.0386	3	C6H5+
78.0464	2	C6H6+
79.0542	63	C6H7+
81.0573	1	C5H7N+
81.0698	1	C6H9+
82.0651	9	C5H8N+
89.0385	2	C7H5+
90.0461	1	C7H6+
91.0542	120	C7H7+
92.0491	1	C6H6N+
93.0573	2	C6H7N+
93.07	4	C7H9+
94.0413	1	C6H6O+
94.0651	10	C6H8N+
95.0491	12	C6H7O+
96.0443	5	C5H6NO+
102.0464	2	C8H6+
103.0542	159	C8H7+
104.0494	5	C7H6N+
104.062	17	C8H8+
105.0698	162	C8H9+
106.065	12	C7H8N+
107.0491	7	C7H7O+
107.0729	10	C7H9N+
107.0854	18	C8H11+
108.0808	9	C7H10N+
109.0649	4	C7H9O+
115.0542	110	C9H7+
116.062	82	C9H8+
117.0573	92	C8H7N+
117.0698	55	C9H9+
118.065	230	C8H8N+
119.0492	2	C8H7O+
119.0728	12	C8H9N+
119.0855	6	C9H11+
120.0807	51	C8H10N+
121.0886	83	C8H11N+
122.0599	2	C7H8NO+
122.0966	8	C8H12N+
123.0677	3	C7H9NO+
128.0619	6	C10H8+
129.0698	7	C10H9+
130.0651	128	C9H8N+
131.0491	42	C9H7O+
131.0729	106	C9H9N+
132.0569	35	C9H8O+
132.0807	401	C9H10N+
133.0885	538	C9H11N+
134.0601	8	C8H8NO+
134.0963	44	C9H12N+
136.0757	44	C8H10NO+
137.0836	3	C8H11NO+
138.0913	10	C8H12NO+
142.0653	2	C10H8N+
143.0729	34	C10H9N+
144.0808	464	C10H10N+
145.0886	186	C10H11N+
146.0599	39	C9H8NO+
146.0964	171	C10H12N+
147.0679	20	C9H9NO+
147.1042	56	C10H13N+
148.112	999	C10H14N+
157.0885	4	C11H11N+
158.0964	132	C11H12N+
159.0439	10	C10H7O2+
159.068	6	C10H9NO+
159.1042	69	C11H13N+
160.0518	18	C10H8O2+
160.0756	228	C10H10NO+
160.112	58	C11H14N+
161.0834	498	C10H11NO+
162.0913	24	C10H12NO+
164.0705	24	C9H10NO2+
165.0781	2	C9H11NO2+
174.0913	30	C11H12NO+
175.0991	21	C11H13NO+
176.1069	71	C11H14NO+
186.0917	3	C12H12NO+
187.0991	1	C12H13NO+
188.0705	172	C11H10NO2+
189.0783	70	C11H11NO2+
202.0861	3	C12H12NO2+
203.0943	3	C12H13NO2+
204.1018	284	C12H14NO2+
