Mass spectrum: 4-Hydroxy-3-methoxybenzaldehyde; LC-ESI-QFT; MS2; CE: 30; R=17500; [M-H]-
Name: 4-Hydroxy-3-methoxybenzaldehyde
Name: Vanillin
Formula: C8H8O3
Exact mass: 152.0473
SMILES: COC1=C(O)C=CC(C=O)=C1
InChI: InChI=1S/C8H8O3/c1-11-8-4-6(5-9)2-3-7(8)10/h2-5,10H,1H3
Instrument: Q Exactive Orbitrap (Thermo Scientific)
Instrument type: LC-ESI-QFT
Ms type: MS2
Ion mode: NEGATIVE
Ionization: ESI
Fragmentation mode: HCD
Collision energy: 30
Resolution: 17500
Column name: Acquity BEH C18 1.7um, 2.1x150mm (Waters)
Retention time: 14.170 min
Base peak: 151.04
Precursor m/z: 151.0401
Precursor type: [M-H]-
Precursor intensity: 24263037.75781
m/z	relative intensity	assigned
68.9982	1	C3HO2-
69.0346	1	C4H5O-
70.0061	1	C3H2O2-
71.0139	1	C3H3O2-
82.0061	4	C4H2O2-
91.0189	3	C6H3O-
92.0267	42	C6H4O-
95.0139	59	C5H3O2-
106.0061	3	C6H2O2-
107.0502	2	C7H7O-
108.0217	55	C6H4O2-
119.0139	8	C7H3O2-
121.0297	2	C7H5O2-
123.0088	6	C6H3O3-
136.0166	604	C7H4O3-
151.04	999	C8H7O3-
