Mass spectrum: Dinoterb; LC-ESI-QFT; MS2; CE: 15; R=17500; [M-H]-
Name: Dinoterb
Name: 2-tert-butyl-4,6-dinitrophenol
Formula: C10H12N2O5
Exact mass: 240.0746
SMILES: CC(C)(C)C1=CC(=CC(=C1O)[N+]([O-])=O)[N+]([O-])=O
InChI: InChI=1S/C10H12N2O5/c1-10(2,3)7-4-6(11(14)15)5-8(9(7)13)12(16)17/h4-5,13H,1-3H3
Instrument: Q Exactive Orbitrap (Thermo Scientific)
Instrument type: LC-ESI-QFT
Ms type: MS2
Ion mode: NEGATIVE
Ionization: ESI
Fragmentation mode: HCD
Collision energy: 15
Resolution: 17500
Column name: Acquity BEH C18 1.7um, 2.1x150mm (Waters)
Retention time: 18.846 min
Base peak: 239.0673
Precursor m/z: 239.0673
Precursor type: [M-H]-
Precursor intensity: 87956122.0293
m/z	relative intensity	assigned
193.025	2	C8H5N2O4-
194.0458	14	C9H8NO4-
209.0691	2	C10H11NO4-
210.0276	2	C8H6N2O5-
221.0564	2	C10H9N2O4-
222.0647	2	C10H10N2O4-
239.0672	999	C10H11N2O5-
