Mass spectrum: 4-Methylbenzophenone; LC-ESI-QFT; MS2; CE: 75; R=17500; [M+H]+
Name: 4-Methylbenzophenone
Name: (4-methylphenyl)-phenylmethanone
Formula: C14H12O
Exact mass: 196.0888
SMILES: CC1=CC=C(C=C1)C(=O)C1=CC=CC=C1
InChI: InChI=1S/C14H12O/c1-11-7-9-13(10-8-11)14(15)12-5-3-2-4-6-12/h2-10H,1H3
Instrument: Q Exactive Orbitrap (Thermo Scientific)
Instrument type: LC-ESI-QFT
Ms type: MS2
Ion mode: POSITIVE
Ionization: ESI
Fragmentation mode: HCD
Collision energy: 75
Resolution: 17500
Column name: Acquity BEH C18 1.7um, 2.1x150mm (Waters)
Retention time: 18.311 min
Base peak: 79.0211
Precursor m/z: 197.0961
Precursor type: [M+H]+
Precursor intensity: 1816281.203125
m/z	relative intensity	assigned
50.0152	8	C4H2+
51.023	14	C4H3+
53.0386	215	C4H5+
55.0179	15	C3H3O+
65.0386	49	C5H5+
67.0542	13	C5H7+
77.0386	56	C6H5+
81.0336	25	C5H5O+
91.0543	406	C7H7+
94.0414	23	C6H6O+
95.0492	583	C6H7O+
105.0336	999	C7H5O+
109.0649	129	C7H9O+
119.0493	370	C8H7O+
