Mass spectrum: 4-Toluenesulfonamide; LC-ESI-QFT; MS2; CE: 90; R=17500; [M-H]-
Name: 4-Toluenesulfonamide
Name: P-Toluenesulfonamide
Name: 4-methylbenzenesulfonamide
Formula: C7H9NO2S
Exact mass: 171.0354
SMILES: CC1=CC=C(C=C1)S(N)(=O)=O
InChI: InChI=1S/C7H9NO2S/c1-6-2-4-7(5-3-6)11(8,9)10/h2-5H,1H3,(H2,8,9,10)
Instrument: Q Exactive Orbitrap (Thermo Scientific)
Instrument type: LC-ESI-QFT
Ms type: MS2
Ion mode: NEGATIVE
Ionization: ESI
Fragmentation mode: HCD
Collision energy: 90
Resolution: 17500
Column name: Acquity BEH C18 1.7um, 2.1x150mm (Waters)
Retention time: 16.031 min
Base peak: 323.107
Precursor m/z: 170.0281
Precursor type: [M-H]-
Precursor intensity: 1226427.734375
m/z	relative intensity	assigned
61.9706	999	NOS-
63.9625	637	O2S-
77.9655	262	NO2S-
78.9734	963	HNO2S-
79.9812	690	H2NO2S-
103.0427	17	C7H5N-
104.0505	13	C7H6N-
106.0663	487	C7H8N-
107.0502	59	C7H7O-
122.0612	123	C7H8NO-
170.0284	7	C7H8NO2S-
