Mass spectrum: Dicyclohexyl phthalate; LC-ESI-QFT; MS2; CE: 90; R=17500; [M-H]-
Name: Dicyclohexyl phthalate
Name: dicyclohexyl benzene-1,2-dicarboxylate
Formula: C20H26O4
Exact mass: 330.1831
SMILES: O=C(OC1CCCCC1)C1=C(C=CC=C1)C(=O)OC1CCCCC1
InChI: InChI=1S/C20H26O4/c21-19(23-15-9-3-1-4-10-15)17-13-7-8-14-18(17)20(22)24-16-11-5-2-6-12-16/h7-8,13-16H,1-6,9-12H2
Instrument: Q Exactive Orbitrap (Thermo Scientific)
Instrument type: LC-ESI-QFT
Ms type: MS2
Ion mode: NEGATIVE
Ionization: ESI
Fragmentation mode: HCD
Collision energy: 90
Resolution: 17500
Column name: Acquity BEH C18 1.7um, 2.1x150mm (Waters)
Retention time: 15.542 min
Base peak: 405.1916
Precursor m/z: 329.1758
Precursor type: [M-H]-
Precursor intensity: 6207311.020508
m/z	relative intensity	assigned
55.0189	9	C3H3O-
57.0346	362	C3H5O-
59.0139	3	C2H3O2-
65.0397	15	C5H5-
67.019	7	C4H3O-
69.0347	17	C4H5O-
71.0139	4	C3H3O2-
79.0554	14	C6H7-
80.0267	17	C5H4O-
81.0346	26	C5H5O-
83.0502	8	C5H7O-
91.0554	22	C7H7-
93.0346	37	C6H5O-
93.071	10	C7H9-
94.0425	22	C6H6O-
95.0139	7	C5H3O2-
95.0503	117	C6H7O-
97.066	30	C6H9O-
99.0452	3	C5H7O2-
105.0709	8	C8H9-
106.0423	24	C7H6O-
107.0503	216	C7H7O-
108.0217	46	C6H4O2-
109.0659	205	C7H9O-
117.0351	4	C8H5O-
119.0502	96	C8H7O-
120.0581	12	C8H8O-
121.0295	34	C7H5O2-
121.0659	131	C8H9O-
122.0373	529	C7H6O2-
123.0452	161	C7H7O2-
123.0815	138	C8H11O-
124.0166	21	C6H4O3-
125.0606	7	C7H9O2-
129.0346	9	C9H5O-
131.0504	7	C9H7O-
133.0662	17	C9H9O-
134.0374	112	C8H6O2-
135.0452	76	C8H7O2-
135.0817	15	C9H11O-
136.053	158	C8H8O2-
137.0244	55	C7H5O3-
137.0608	288	C8H9O2-
138.0321	4	C7H6O3-
143.0503	8	C10H7O-
145.066	28	C10H9O-
147.0452	77	C9H7O2-
147.0818	5	C10H11O-
148.0531	118	C9H8O2-
149.0608	999	C9H9O2-
151.0401	18	C8H7O3-
153.0195	5	C7H5O4-
154.0272	62	C7H6O4-
157.066	4	C11H9O-
159.0452	16	C10H7O2-
159.0814	19	C11H11O-
161.0608	13	C10H9O2-
161.0974	22	C11H13O-
163.0763	6	C10H11O2-
168.0429	9	C8H8O4-
171.0818	4	C12H11O-
173.0608	9	C11H9O2-
175.0765	6	C11H11O2-
175.1128	5	C12H15O-
187.0766	11	C12H11O2-
199.077	4	C13H11O2-
