Mass spectrum: Piperonyl butoxide; LC-ESI-QFT; MS2; CE: 60; R=17500; [M-H]-
Name: Piperonyl butoxide
Name: 5-[2-(2-butoxyethoxy)ethoxymethyl]-6-propyl-1,3-benzodioxole
Formula: C19H30O5
Exact mass: 338.2093
SMILES: CCCCOCCOCCOCC1=CC2=C(OCO2)C=C1CCC
InChI: InChI=1S/C19H30O5/c1-3-5-7-20-8-9-21-10-11-22-14-17-13-19-18(23-15-24-19)12-16(17)6-4-2/h12-13H,3-11,14-15H2,1-2H3
Instrument: Q Exactive Orbitrap (Thermo Scientific)
Instrument type: LC-ESI-QFT
Ms type: MS2
Ion mode: NEGATIVE
Ionization: ESI
Fragmentation mode: HCD
Collision energy: 60
Resolution: 17500
Column name: Acquity BEH C18 1.7um, 2.1x150mm (Waters)
Retention time: 20.612 min
Base peak: 112.9856
Precursor m/z: 337.202
Precursor type: [M-H]-
Precursor intensity: 3127119.414551
m/z	relative intensity	assigned
55.0189	11	C3H3O-
65.0033	30	C4HO-
67.0189	35	C4H3O-
68.9982	25	C3HO2-
69.0346	35	C4H5O-
71.014	30	C3H3O2-
72.9932	43	C2HO3-
78.0112	10	C5H2O-
79.0188	14	C5H3O-
81.0346	15	C5H5O-
82.0061	22	C4H2O2-
83.0138	47	C4H3O2-
87.0087	19	C3H3O3-
95.0139	27	C5H3O2-
96.9931	12	C4HO3-
97.0297	33	C5H5O2-
99.0088	7	C4H3O3-
106.006	28	C6H2O2-
110.001	52	C5H2O3-
111.0088	311	C5H3O3-
123.0088	155	C6H3O3-
124.0166	263	C6H4O3-
125.0244	999	C6H5O3-
127.0037	134	C5H3O4-
136.988	192	C6HO4-
138.0325	7	C7H6O3-
139.0037	319	C6H3O4-
140.0116	511	C6H4O4-
141.0193	5	C6H5O4-
151.0037	16	C7H3O4-
154.9986	43	C6H3O5-
168.0063	51	C7H4O5-
169.0143	183	C7H5O5-
337.203	17	C19H29O5-
