Mass spectrum: Dinoterb; LC-ESI-QFT; MS2; CE: 45; R=17500; [M-H]-
Name: Dinoterb
Name: 2-tert-butyl-4,6-dinitrophenol
Formula: C10H12N2O5
Exact mass: 240.0746
SMILES: CC(C)(C)C1=CC(=CC(=C1O)[N+]([O-])=O)[N+]([O-])=O
InChI: InChI=1S/C10H12N2O5/c1-10(2,3)7-4-6(11(14)15)5-8(9(7)13)12(16)17/h4-5,13H,1-3H3
Instrument: Q Exactive Orbitrap (Thermo Scientific)
Instrument type: LC-ESI-QFT
Ms type: MS2
Ion mode: NEGATIVE
Ionization: ESI
Fragmentation mode: HCD
Collision energy: 45
Resolution: 17500
Column name: Acquity BEH C18 1.7um, 2.1x150mm (Waters)
Retention time: 18.938 min
Base peak: 239.0673
Precursor m/z: 239.0673
Precursor type: [M-H]-
Precursor intensity: 80481031.51074
m/z	relative intensity	assigned
107.0866	14	C8H11-
109.0295	1	C6H5O2-
123.0089	2	C6H3O3-
123.0326	6	C6H5NO2-
135.0815	1	C9H11O-
136.0531	1	C8H8O2-
148.0406	1	C8H6NO2-
150.056	10	C8H8NO2-
151.0276	5	C7H5NO3-
151.0764	42	C9H11O2-
153.0069	2	C6H3NO4-
164.0716	6	C9H10NO2-
165.0794	2	C9H11NO2-
166.0145	5	C7H4NO4-
166.051	6	C8H8NO3-
176.0353	5	C9H6NO3-
177.0432	3	C9H7NO3-
178.051	14	C9H8NO3-
179.0714	61	C10H11O3-
181.0746	1	C9H11NO3-
192.0663	1	C10H10NO3-
193.0745	4	C10H11NO3-
194.0459	36	C9H8NO4-
206.0329	2	C9H6N2O4-
207.0411	381	C9H7N2O4-
208.0614	20	C10H10NO4-
209.0693	63	C10H11NO4-
223.0365	2	C9H7N2O5-
224.0439	33	C9H8N2O5-
239.0673	999	C10H11N2O5-
