Mass spectrum: Melatonin; LC-ESI-QFT; MS2; CE: 15; R=17500; [M+H]+
Name: Melatonin
Formula: C13H16N2O2
Exact mass: 232.1212
SMILES: COC1=CC2=C(NC=C2CCNC(C)=O)C=C1
InChI: InChI=1S/C13H16N2O2/c1-9(16)14-6-5-10-8-15-13-4-3-11(17-2)7-12(10)13/h3-4,7-8,15H,5-6H2,1-2H3,(H,14,16)
Instrument: Q Exactive Orbitrap (Thermo Scientific)
Instrument type: LC-ESI-QFT
Ms type: MS2
Ion mode: POSITIVE
Ionization: ESI
Fragmentation mode: HCD
Collision energy: 15
Resolution: 17500
Column name: Acquity BEH C18 1.7um, 2.1x150mm (Waters)
Retention time: 13.555 min
Base peak: 79.0211
Precursor m/z: 233.1285
Precursor type: [M+H]+
Precursor intensity: 7047885.875
m/z	relative intensity	assigned
86.0599	6	C4H8NO+
130.0652	1	C9H8N+
159.0677	2	C10H9NO+
162.0916	1	C10H12NO+
174.0912	999	C11H12NO+
188.1074	3	C12H14NO+
191.1178	11	C11H15N2O+
198.0914	3	C13H12NO+
204.1018	2	C12H14NO2+
215.118	1	C13H15N2O+
216.1017	129	C13H14NO2+
233.1282	113	C13H17N2O2+
