Mass spectrum: Melatonin; LC-ESI-QFT; MS2; CE: 75; R=17500; [M+H]+
Name: Melatonin
Formula: C13H16N2O2
Exact mass: 232.1212
SMILES: COC1=CC2=C(NC=C2CCNC(C)=O)C=C1
InChI: InChI=1S/C13H16N2O2/c1-9(16)14-6-5-10-8-15-13-4-3-11(17-2)7-12(10)13/h3-4,7-8,15H,5-6H2,1-2H3,(H,14,16)
Instrument: Q Exactive Orbitrap (Thermo Scientific)
Instrument type: LC-ESI-QFT
Ms type: MS2
Ion mode: POSITIVE
Ionization: ESI
Fragmentation mode: HCD
Collision energy: 75
Resolution: 17500
Column name: Acquity BEH C18 1.7um, 2.1x150mm (Waters)
Retention time: 13.555 min
Base peak: 79.0211
Precursor m/z: 233.1285
Precursor type: [M+H]+
Precursor intensity: 7892732.125
m/z	relative intensity	assigned
65.0386	1	C5H5+
78.0463	2	C6H6+
80.0495	1	C5H6N+
81.0572	2	C5H7N+
86.06	7	C4H8NO+
91.0542	35	C7H7+
95.0492	2	C6H7O+
103.0541	5	C8H7+
104.0494	1	C7H6N+
104.0621	7	C8H8+
105.0572	3	C7H7N+
106.0649	2	C7H8N+
107.0492	3	C7H7O+
108.0569	5	C7H8O+
115.0542	78	C9H7+
116.0494	5	C8H6N+
116.0622	6	C9H8+
117.0573	13	C8H7N+
117.0698	42	C9H9+
118.0651	14	C8H8N+
119.0854	4	C9H11+
120.0441	2	C7H6NO+
121.0647	4	C8H9O+
128.0499	1	C9H6N+
128.062	5	C10H8+
129.0697	7	C10H9+
130.0651	192	C9H8N+
131.0729	555	C9H9N+
132.0447	7	C8H6NO+
132.0569	19	C9H8O+
133.052	7	C8H7NO+
134.0598	10	C8H8NO+
135.0806	1	C9H11O+
137.047	3	C7H7NO2+
140.0493	4	C10H6N+
141.0571	3	C10H7N+
142.0651	42	C10H8N+
143.0729	415	C10H9N+
144.0443	2	C9H6NO+
144.0807	53	C10H10N+
145.0647	10	C10H9O+
145.0885	2	C10H11N+
146.0599	10	C9H8NO+
146.0964	6	C10H12N+
147.0678	19	C9H9NO+
147.0804	22	C10H11O+
148.0754	2	C9H10NO+
154.065	5	C11H8N+
155.0604	5	C10H7N2+
155.0729	10	C11H9N+
156.0812	2	C11H10N+
158.06	49	C10H8NO+
159.0678	999	C10H9NO+
160.0755	17	C10H10NO+
162.0914	7	C10H12NO+
167.0732	2	C12H9N+
170.097	1	C12H12N+
172.0755	2	C11H10NO+
173.0835	31	C11H11NO+
174.0913	346	C11H12NO+
183.0679	15	C12H9NO+
186.0547	7	C11H8NO2+
188.107	1	C12H14NO+
198.0912	5	C13H12NO+
201.0783	1	C12H11NO2+
