Mass spectrum: 4-Toluenesulfonamide; LC-ESI-QFT; MS2; CE: 15; R=17500; [M-H]-
Name: 4-Toluenesulfonamide
Name: P-Toluenesulfonamide
Name: 4-methylbenzenesulfonamide
Formula: C7H9NO2S
Exact mass: 171.0354
SMILES: CC1=CC=C(C=C1)S(N)(=O)=O
InChI: InChI=1S/C7H9NO2S/c1-6-2-4-7(5-3-6)11(8,9)10/h2-5H,1H3,(H2,8,9,10)
Instrument: Q Exactive Orbitrap (Thermo Scientific)
Instrument type: LC-ESI-QFT
Ms type: MS2
Ion mode: NEGATIVE
Ionization: ESI
Fragmentation mode: HCD
Collision energy: 15
Resolution: 17500
Column name: Acquity BEH C18 1.7um, 2.1x150mm (Waters)
Retention time: 16.031 min
Base peak: 323.107
Precursor m/z: 170.0281
Precursor type: [M-H]-
Precursor intensity: 1162533.65332
m/z	relative intensity	assigned
61.9706	3	NOS-
63.9625	5	O2S-
77.9656	2	NO2S-
78.9732	13	HNO2S-
79.9812	41	H2NO2S-
106.0662	347	C7H8N-
107.0503	3	C7H7O-
170.0282	999	C7H8NO2S-
