Mass spectrum: Theobromine; LC-ESI-QFT; MS2; CE: 45; R=17500; [M-H]-
Name: Theobromine
Name: 3,7-dimethylpurine-2,6-dione
Formula: C7H8N4O2
Exact mass: 180.0647
SMILES: CN1C=NC2=C1C(=O)NC(=O)N2C
InChI: InChI=1S/C7H8N4O2/c1-10-3-8-5-4(10)6(12)9-7(13)11(5)2/h3H,1-2H3,(H,9,12,13)
Instrument: Q Exactive Orbitrap (Thermo Scientific)
Instrument type: LC-ESI-QFT
Ms type: MS2
Ion mode: NEGATIVE
Ionization: ESI
Fragmentation mode: HCD
Collision energy: 45
Resolution: 17500
Column name: Acquity BEH C18 1.7um, 2.1x150mm (Waters)
Retention time: 10.184 min
Base peak: 162.0309
Precursor m/z: 179.0574
Precursor type: [M-H]-
Precursor intensity: 3149488.76123
m/z	relative intensity	assigned
65.9986	2	C3NO-
79.0175	4	C3HN3-
94.041	24	C4H4N3-
122.036	264	C5H4N3O-
135.0074	11	C5HN3O2-
135.0313	5	C5H3N4O-
136.0389	5	C5H4N4O-
140.0466	34	C5H6N3O2-
164.034	617	C6H4N4O2-
179.0575	999	C7H7N4O2-
