Mass spectrum: 2-Hexyldecanoic acid; LC-ESI-QFT; MS2; CE: 45; R=17500; [M-H]-
Name: 2-Hexyldecanoic acid
Formula: C16H32O2
Exact mass: 256.2402
SMILES: CCCCCCCCC(CCCCCC)C(O)=O
InChI: InChI=1S/C16H32O2/c1-3-5-7-9-10-12-14-15(16(17)18)13-11-8-6-4-2/h15H,3-14H2,1-2H3,(H,17,18)
Instrument: Q Exactive Orbitrap (Thermo Scientific)
Instrument type: LC-ESI-QFT
Ms type: MS2
Ion mode: NEGATIVE
Ionization: ESI
Fragmentation mode: HCD
Collision energy: 45
Resolution: 17500
Column name: Acquity BEH C18 1.7um, 2.1x150mm (Waters)
Retention time: 21.587 min
Base peak: 112.9856
Precursor m/z: 255.233
Precursor type: [M-H]-
Precursor intensity: 1651638.410645
m/z	relative intensity	assigned
255.233	999	C16H31O2-
