Mass spectrum: Melatonin; LC-ESI-QFT; MS2; CE: 15; R=17500; [M-H]-
Name: Melatonin
Formula: C13H16N2O2
Exact mass: 232.1212
SMILES: COC1=CC2=C(NC=C2CCNC(C)=O)C=C1
InChI: InChI=1S/C13H16N2O2/c1-9(16)14-6-5-10-8-15-13-4-3-11(17-2)7-12(10)13/h3-4,7-8,15H,5-6H2,1-2H3,(H,14,16)
Instrument: Q Exactive Orbitrap (Thermo Scientific)
Instrument type: LC-ESI-QFT
Ms type: MS2
Ion mode: NEGATIVE
Ionization: ESI
Fragmentation mode: HCD
Collision energy: 15
Resolution: 17500
Column name: Acquity BEH C18 1.7um, 2.1x150mm (Waters)
Retention time: 13.551 min
Base peak: 112.9857
Precursor m/z: 231.1139
Precursor type: [M-H]-
Precursor intensity: 597802.9926758
m/z	relative intensity	assigned
58.0298	46	C2H4NO-
144.0454	71	C9H6NO-
146.0248	11	C8H4NO2-
172.0403	11	C10H6NO2-
189.0661	9	C10H9N2O2-
216.0904	999	C12H12N2O2-
231.1138	614	C13H15N2O2-
