Mass spectrum: Melatonin; LC-ESI-QFT; MS2; CE: 60; R=17500; [M+H]+
Name: Melatonin
Formula: C13H16N2O2
Exact mass: 232.1212
SMILES: COC1=CC2=C(NC=C2CCNC(C)=O)C=C1
InChI: InChI=1S/C13H16N2O2/c1-9(16)14-6-5-10-8-15-13-4-3-11(17-2)7-12(10)13/h3-4,7-8,15H,5-6H2,1-2H3,(H,14,16)
Instrument: Q Exactive Orbitrap (Thermo Scientific)
Instrument type: LC-ESI-QFT
Ms type: MS2
Ion mode: POSITIVE
Ionization: ESI
Fragmentation mode: HCD
Collision energy: 60
Resolution: 17500
Column name: Acquity BEH C18 1.7um, 2.1x150mm (Waters)
Retention time: 13.555 min
Base peak: 79.0211
Precursor m/z: 233.1285
Precursor type: [M+H]+
Precursor intensity: 7254096.75
m/z	relative intensity	assigned
81.0574	1	C5H7N+
86.06	9	C4H8NO+
89.0387	1	C7H5+
91.0542	13	C7H7+
103.0543	1	C8H7+
107.049	1	C7H7O+
108.0566	2	C7H8O+
115.0543	26	C9H7+
117.0573	4	C8H7N+
117.0698	26	C9H9+
118.0651	10	C8H8N+
119.0853	2	C9H11+
121.065	1	C8H9O+
128.0619	2	C10H8+
129.0699	5	C10H9+
130.0651	22	C9H8N+
131.073	146	C9H9N+
132.0447	1	C8H6NO+
132.0569	8	C9H8O+
133.052	4	C8H7NO+
134.06	3	C8H8NO+
135.0804	1	C9H11O+
142.0652	35	C10H8N+
143.073	230	C10H9N+
144.0808	53	C10H10N+
145.0647	5	C10H9O+
145.0886	2	C10H11N+
146.06	4	C9H8NO+
146.0964	10	C10H12N+
147.0681	5	C9H9NO+
147.0804	26	C10H11O+
148.0757	3	C9H10NO+
154.0648	1	C11H8N+
155.0605	3	C10H7N2+
155.0729	3	C11H9N+
158.0602	12	C10H8NO+
159.0679	729	C10H9NO+
160.0754	11	C10H10NO+
162.0912	10	C10H12NO+
167.0732	1	C12H9N+
170.0966	2	C12H12N+
172.0755	1	C11H10NO+
173.0836	23	C11H11NO+
174.0913	999	C11H12NO+
183.068	10	C12H9NO+
186.0548	3	C11H8NO2+
188.107	5	C12H14NO+
198.0913	13	C13H12NO+
201.0785	4	C12H11NO2+
216.1021	13	C13H14NO2+
