Mass spectrum: 3,3`-Sulphonyldianiline; LC-ESI-QFT; MS2; CE: 30; R=17500; [M+H]+
Name: 3,3'-Sulphonyldianiline
Name: 3,3'-Sulfonyldianiline
Name: 3-(3-aminophenyl)sulfonylaniline
Formula: C12H12N2O2S
Exact mass: 248.0619
SMILES: NC1=CC=CC(=C1)S(=O)(=O)C1=CC(N)=CC=C1
InChI: InChI=1S/C12H12N2O2S/c13-9-3-1-5-11(7-9)17(15,16)12-6-2-4-10(14)8-12/h1-8H,13-14H2
Instrument: Q Exactive Orbitrap (Thermo Scientific)
Instrument type: LC-ESI-QFT
Ms type: MS2
Ion mode: POSITIVE
Ionization: ESI
Fragmentation mode: HCD
Collision energy: 30
Resolution: 17500
Column name: Acquity BEH C18 1.7um, 2.1x150mm (Waters)
Retention time: 10.897 min
Base peak: 79.0212
Precursor m/z: 249.0692
Precursor type: [M+H]+
Precursor intensity: 6408215.6875
m/z	relative intensity	assigned
53.0386	2	C4H5+
54.0339	2	C3H4N+
55.0178	2	C3H3O+
65.0383	3	C5H5+
68.0494	42	C4H6N+
69.0334	3	C4H5O+
78.0338	5	C5H4N+
79.0178	7	C5H3O+
80.0494	1	C5H6N+
82.0287	1	C4H4NO+
92.0495	81	C6H6N+
93.0573	40	C6H7N+
95.0365	1	C5H5NO+
96.0444	6	C5H6NO+
108.0444	316	C6H6NO+
110.06	13	C6H8NO+
120.0556	7	C8H8O+
140.0167	1	C6H6NOS+
156.0113	999	C6H6NO2S+
188.9901	2	C9H3NO2S+
249.0692	199	C12H13N2O2S+
