Mass spectrum: 2,5-Dichlorophenol; LC-ESI-QFT; MS2; CE: 90; R=17500; [M+H]+
Name: 2,5-Dichlorophenol
Formula: C6H4Cl2O
Exact mass: 161.9639
SMILES: OC1=CC(Cl)=CC=C1Cl
InChI: InChI=1S/C6H4Cl2O/c7-4-1-2-5(8)6(9)3-4/h1-3,9H
Instrument: Q Exactive Orbitrap (Thermo Scientific)
Instrument type: LC-ESI-QFT
Ms type: MS2
Ion mode: POSITIVE
Ionization: ESI
Fragmentation mode: HCD
Collision energy: 90
Resolution: 17500
Column name: Acquity BEH C18 1.7um, 2.1x150mm (Waters)
Retention time: 25.548 min
Base peak: 79.0211
Precursor m/z: 162.9712
Precursor type: [M+H]+
Precursor intensity: 2533388.03125
m/z	relative intensity	assigned
53.0386	57	C4H5+
71.9519	127	Cl2H2+
77.0386	28	C6H5+
81.0336	4	C5H5O+
84.9597	999	CH3Cl2+
92.0257	98	C6H4O+
102.9706	133	CH5Cl2O+
132.9605	5	C5H3Cl2+
136.956	4	C4H3Cl2O+
148.9563	4	C5H3Cl2O+
