Mass spectrum: Daidzein; LC-ESI-QFT; MS2; CE: 60; R=17500; [M+H]+
Name: Daidzein
Formula: C15H10O4
Exact mass: 254.0579
SMILES: OC1=CC=C(C=C1)C1=COC2=C(C=CC(O)=C2)C1=O
InChI: InChI=1S/C15H10O4/c16-10-3-1-9(2-4-10)13-8-19-14-7-11(17)5-6-12(14)15(13)18/h1-8,16-17H
Instrument: Q Exactive Orbitrap (Thermo Scientific)
Instrument type: LC-ESI-QFT
Ms type: MS2
Ion mode: POSITIVE
Ionization: ESI
Fragmentation mode: HCD
Collision energy: 60
Resolution: 17500
Column name: Acquity BEH C18 1.7um, 2.1x150mm (Waters)
Retention time: 15.105 min
Base peak: 79.0211
Precursor m/z: 255.0652
Precursor type: [M+H]+
Precursor intensity: 9702072.3125
m/z	relative intensity	assigned
53.0022	2	C3HO+
53.0387	3	C4H5+
55.0179	46	C3H3O+
63.0228	1	C5H3+
65.0385	28	C5H5+
68.9971	39	C3HO2+
71.0126	2	C3H3O2+
81.0335	28	C5H5O+
89.0385	12	C7H5+
91.0542	294	C7H7+
92.0259	1	C6H4O+
93.0335	3	C6H5O+
95.0129	2	C5H3O2+
95.0491	5	C6H7O+
96.0207	2	C5H4O2+
103.0541	3	C8H7+
105.0335	25	C7H5O+
106.0414	2	C7H6O+
107.0492	4	C7H7O+
108.0556	110	C7H8O+
109.0285	7	C6H5O2+
110.0714	18	C7H10O+
111.044	9	C6H7O2+
115.0543	14	C9H7+
117.0335	3	C8H5O+
118.0413	7	C8H6O+
119.0492	123	C8H7O+
120.0557	4	C8H8O+
121.0285	48	C7H5O2+
127.039	6	C6H7O3+
128.0621	83	C10H8+
129.0698	112	C10H9+
131.0491	41	C9H7O+
131.0856	22	C10H11+
133.0284	67	C8H5O2+
134.0362	28	C8H6O2+
135.0439	2	C8H7O2+
137.0233	738	C7H5O3+
141.07	21	C11H9+
142.0776	1	C11H10+
143.0492	4	C10H7O+
143.0855	69	C11H11+
144.0568	3	C10H8O+
145.0284	119	C9H5O2+
145.0648	7	C10H9O+
147.0246	5	C12H3+
147.0442	6	C9H7O2+
149.0234	58	C8H5O3+
152.062	54	C12H8+
153.0699	263	C12H9+
154.0777	6	C12H10+
155.0333	2	C7H7O4+
155.0491	2	C11H7O+
155.0855	7	C12H11+
156.0565	1	C11H8O+
157.0648	146	C11H9O+
159.0439	4	C10H7O2+
159.0804	5	C11H11O+
161.0232	2	C9H5O3+
165.07	22	C13H9+
167.0341	11	C8H7O4+
167.049	2	C12H7O+
168.0568	5	C12H8O+
169.0648	32	C12H9O+
170.0725	6	C12H10O+
171.0804	148	C12H11O+
175.0389	2	C10H7O3+
181.0648	441	C13H9O+
182.0728	24	C13H10O+
183.0804	3	C13H11O+
184.0518	50	C12H8O2+
185.0598	31	C12H9O2+
187.0392	2	C11H7O3+
187.0559	19	C15H7+
187.0756	1	C12H11O2+
193.0496	7	C10H9O4+
197.0597	44	C13H9O2+
198.0676	30	C13H10O2+
199.0754	999	C13H11O2+
200.0498	2	C12H8O3+
209.0597	55	C14H9O2+
210.0676	20	C14H10O2+
211.0754	22	C14H11O2+
212.0469	11	C13H8O3+
213.0547	9	C13H9O3+
225.0547	6	C14H9O3+
226.0625	19	C14H10O3+
227.0703	372	C14H11O3+
237.0546	193	C15H9O3+
255.0652	772	C15H11O4+
