Mass spectrum: 2-Butyl-1H-isoindole-1,3(2H)-dione; LC-ESI-QFT; MS2; CE: 60; R=17500; [M-H]-
Name: 2-Butyl-1H-isoindole-1,3(2H)-dione
Name: N-Butylphthalimide
Name: 2-butylisoindole-1,3-dione
Formula: C12H13NO2
Exact mass: 203.0946
SMILES: CCCCN1C(=O)C2=C(C=CC=C2)C1=O
InChI: InChI=1S/C12H13NO2/c1-2-3-8-13-11(14)9-6-4-5-7-10(9)12(13)15/h4-7H,2-3,8H2,1H3
Instrument: Q Exactive Orbitrap (Thermo Scientific)
Instrument type: LC-ESI-QFT
Ms type: MS2
Ion mode: NEGATIVE
Ionization: ESI
Fragmentation mode: HCD
Collision energy: 60
Resolution: 17500
Column name: Acquity BEH C18 1.7um, 2.1x150mm (Waters)
Retention time: 15.736 min
Base peak: 284.0451
Precursor m/z: 202.0874
Precursor type: [M-H]-
Precursor intensity: 3639211.927734
m/z	relative intensity	assigned
55.0189	21	C3H3O-
65.0397	18	C5H5-
67.0189	16	C4H3O-
68.9983	1	C3HO2-
81.0346	15	C5H5O-
83.0503	33	C5H7O-
92.0506	999	C6H6N-
108.0218	4	C6H4O2-
109.0295	328	C6H5O2-
116.0504	8	C8H6N-
131.0377	12	C8H5NO-
136.0404	1	C7H6NO2-
142.0662	9	C10H8N-
144.0455	13	C9H6NO-
156.0822	2	C11H10N-
158.061	12	C10H8NO-
160.0768	3	C10H10NO-
187.0645	2	C11H9NO2-
