Mass spectrum: Ethyl 2-methoxybenzoate; LC-ESI-QFT; MS2; CE: 90; R=17500; [M-H]-
Name: Ethyl 2-methoxybenzoate
Formula: C10H12O3
Exact mass: 180.0786
SMILES: CCOC(=O)C1=C(OC)C=CC=C1
InChI: InChI=1S/C10H12O3/c1-3-13-10(11)8-6-4-5-7-9(8)12-2/h4-7H,3H2,1-2H3
Instrument: Q Exactive Orbitrap (Thermo Scientific)
Instrument type: LC-ESI-QFT
Ms type: MS2
Ion mode: NEGATIVE
Ionization: ESI
Fragmentation mode: HCD
Collision energy: 90
Resolution: 17500
Column name: Acquity BEH C18 1.7um, 2.1x150mm (Waters)
Retention time: 16.579 min
Base peak: 179.0713
Precursor m/z: 179.0714
Precursor type: [M-H]-
Precursor intensity: 39484974.59961
m/z	relative intensity	assigned
57.0346	118	C3H5O-
59.0502	5	C3H7O-
65.0033	3	C4HO-
65.0397	24	C5H5-
67.019	4	C4H3O-
68.9982	13	C3HO2-
69.0346	12	C4H5O-
70.0061	7	C3H2O2-
71.0138	7	C3H3O2-
72.9931	3	C2HO3-
78.0112	2	C5H2O-
79.019	6	C5H3O-
79.9904	6	C4O2-
80.9983	2	C4HO2-
82.0061	44	C4H2O2-
83.0138	1	C4H3O2-
91.019	89	C6H3O-
92.0268	267	C6H4O-
93.0346	999	C6H5O-
95.0139	466	C5H3O2-
97.0295	7	C5H5O2-
98.0011	1	C4H2O3-
106.0061	22	C6H2O2-
107.014	4	C6H3O2-
108.0217	459	C6H4O2-
109.0295	2	C6H5O2-
119.0138	1	C7H3O2-
121.0295	29	C7H5O2-
123.0088	64	C6H3O3-
136.0166	19	C7H4O3-
136.053	3	C8H8O2-
137.0245	11	C7H5O3-
151.0761	1	C9H11O2-
