Mass spectrum: 4-Methylumbelliferone; LC-ESI-QFT; MS2; CE: 75; R=17500; [M-H]-
Name: 4-Methylumbelliferone
Name: 7-hydroxy-4-methylchromen-2-one
Formula: C10H8O3
Exact mass: 176.0473
SMILES: CC1=CC(=O)OC2=C1C=CC(O)=C2
InChI: InChI=1S/C10H8O3/c1-6-4-10(12)13-9-5-7(11)2-3-8(6)9/h2-5,11H,1H3
Instrument: Q Exactive Orbitrap (Thermo Scientific)
Instrument type: LC-ESI-QFT
Ms type: MS2
Ion mode: NEGATIVE
Ionization: ESI
Fragmentation mode: HCD
Collision energy: 75
Resolution: 17500
Column name: Acquity BEH C18 1.7um, 2.1x150mm (Waters)
Retention time: 14.056 min
Base peak: 175.04
Precursor m/z: 175.0401
Precursor type: [M-H]-
Precursor intensity: 54723206.15527
m/z	relative intensity	assigned
63.024	4	C5H3-
65.0033	156	C4HO-
65.0396	16	C5H5-
67.0189	5	C4H3O-
77.0397	33	C6H5-
79.0553	4	C6H7-
81.0346	3	C5H5O-
89.0397	331	C7H5-
91.0189	48	C6H3O-
91.0553	19	C7H7-
93.0346	49	C6H5O-
95.0503	223	C6H7O-
102.0475	23	C8H6-
103.0553	44	C8H7-
104.0268	2	C7H4O-
105.0346	84	C7H5O-
107.0502	26	C7H7O-
109.0294	29	C6H5O2-
117.0345	6	C8H5O-
119.0502	877	C8H7O-
121.0294	6	C7H5O2-
123.0451	382	C7H7O2-
130.0424	124	C9H6O-
131.0502	476	C9H7O-
132.0217	40	C8H4O2-
133.0295	999	C8H5O2-
135.0088	15	C7H3O3-
145.0295	4	C9H5O2-
146.0374	9	C9H6O2-
147.0451	574	C9H7O2-
160.0163	2	C9H4O3-
174.0321	4	C10H6O3-
175.04	761	C10H7O3-
