Mass spectrum: Indole-3-butyric acid; LC-ESI-QFT; MS2; CE: 90; R=17500; [M+H]+
Name: Indole-3-butyric acid
Name: 4-(1H-indol-3-yl)butanoic acid
Formula: C12H13NO2
Exact mass: 203.0946
SMILES: OC(=O)CCCC1=CNC2=C1C=CC=C2
InChI: InChI=1S/C12H13NO2/c14-12(15)7-3-4-9-8-13-11-6-2-1-5-10(9)11/h1-2,5-6,8,13H,3-4,7H2,(H,14,15)
Instrument: Q Exactive Orbitrap (Thermo Scientific)
Instrument type: LC-ESI-QFT
Ms type: MS2
Ion mode: POSITIVE
Ionization: ESI
Fragmentation mode: HCD
Collision energy: 90
Resolution: 17500
Column name: Acquity BEH C18 1.7um, 2.1x150mm (Waters)
Retention time: 16.296 min
Base peak: 79.0211
Precursor m/z: 204.1019
Precursor type: [M+H]+
Precursor intensity: 24380953.75
m/z	relative intensity	assigned
53.0386	20	C4H5+
55.0179	7	C3H3O+
55.0417	25	C3H5N+
55.0543	2	C4H7+
56.0495	15	C3H6N+
58.0651	4	C3H8N+
63.0229	3	C5H3+
65.0385	22	C5H5+
67.0178	21	C4H3O+
67.0542	37	C5H7+
68.0494	10	C4H6N+
70.0651	97	C4H8N+
72.0443	19	C3H6NO+
77.0383	12	C6H5+
78.0463	11	C6H6+
79.0542	187	C6H7+
81.0574	2	C5H7N+
81.0698	4	C6H9+
82.0652	15	C5H8N+
89.0385	8	C7H5+
90.0465	3	C7H6+
91.0542	246	C7H7+
92.0495	4	C6H6N+
93.0573	6	C6H7N+
93.0698	9	C7H9+
94.0416	2	C6H6O+
94.0651	22	C6H8N+
95.0491	61	C6H7O+
96.0444	9	C5H6NO+
102.0464	11	C8H6+
103.0542	307	C8H7+
104.0494	11	C7H6N+
104.062	61	C8H8+
105.0699	272	C8H9+
106.0651	30	C7H8N+
107.0491	12	C7H7O+
107.073	30	C7H9N+
107.0855	16	C8H11+
108.0807	26	C7H10N+
109.0647	5	C7H9O+
115.0542	289	C9H7+
116.0621	154	C9H8+
117.0573	144	C8H7N+
117.0699	70	C9H9+
118.0651	496	C8H8N+
119.0492	3	C8H7O+
119.0729	23	C8H9N+
119.0856	6	C9H11+
120.0808	186	C8H10N+
121.0886	194	C8H11N+
122.0601	4	C7H8NO+
122.0964	13	C8H12N+
123.0678	4	C7H9NO+
128.0619	11	C10H8+
129.0698	10	C10H9+
130.0652	186	C9H8N+
131.0492	92	C9H7O+
131.073	122	C9H9N+
132.0572	78	C9H8O+
132.0808	999	C9H10N+
133.0885	782	C9H11N+
134.0601	12	C8H8NO+
134.0963	62	C9H12N+
135.0804	1	C9H11O+
136.0757	63	C8H10NO+
137.0834	6	C8H11NO+
138.091	9	C8H12NO+
142.0651	20	C10H8N+
143.073	64	C10H9N+
144.0808	599	C10H10N+
145.0885	86	C10H11N+
146.06	96	C9H8NO+
146.0964	316	C10H12N+
147.0678	17	C9H9NO+
147.1042	111	C10H13N+
148.112	631	C10H14N+
157.0888	11	C11H11N+
158.0964	166	C11H12N+
159.0439	6	C10H7O2+
159.0677	14	C10H9NO+
159.1042	37	C11H13N+
160.0756	611	C10H10NO+
161.0834	393	C10H11NO+
162.0911	10	C10H12NO+
164.0703	18	C9H10NO2+
165.0786	2	C9H11NO2+
174.0913	46	C11H12NO+
175.0994	21	C11H13NO+
176.107	21	C11H14NO+
188.0705	291	C11H10NO2+
189.0783	23	C11H11NO2+
202.0857	1	C12H12NO2+
204.102	43	C12H14NO2+
