Mass spectrum: Dimethyl phthalate; LC-ESI-QFT; MS2; CE: 90; R=17500; [M+H]+
Name: Dimethyl phthalate
Name: dimethyl benzene-1,2-dicarboxylate
Formula: C10H10O4
Exact mass: 194.0579
SMILES: COC(=O)C1=C(C=CC=C1)C(=O)OC
InChI: InChI=1S/C10H10O4/c1-13-9(11)7-5-3-4-6-8(7)10(12)14-2/h3-6H,1-2H3
Instrument: Q Exactive Orbitrap (Thermo Scientific)
Instrument type: LC-ESI-QFT
Ms type: MS2
Ion mode: POSITIVE
Ionization: ESI
Fragmentation mode: HCD
Collision energy: 90
Resolution: 17500
Column name: Acquity BEH C18 1.7um, 2.1x150mm (Waters)
Retention time: 19.241 min
Base peak: 79.0211
Precursor m/z: 195.0652
Precursor type: [M+H]+
Precursor intensity: 1312775.8125
m/z	relative intensity	assigned
51.023	66	C4H3+
53.0386	395	C4H5+
77.0386	167	C6H5+
79.0543	157	C6H7+
81.0335	43	C5H5O+
91.0543	26	C7H7+
92.0257	489	C6H4O+
94.0413	46	C6H6O+
95.0492	999	C6H7O+
105.0336	236	C7H5O+
107.0493	19	C7H7O+
109.0647	14	C7H9O+
120.0205	15	C7H4O2+
133.0285	263	C8H5O2+
135.0441	329	C8H7O2+
138.0311	60	C7H6O3+
163.0391	171	C9H7O3+
165.0546	11	C9H9O3+
