Mass spectrum: (4-Methylphenoxy) acetic acid ethyl ester; LC-ESI-QFT; MS2; CE: 90; R=17500; [M-H]-
Name: (4-Methylphenoxy) acetic acid ethyl ester
Name: Ethyl (4-methylphenoxy)acetate
Formula: C11H14O3
Exact mass: 194.0943
SMILES: CCOC(=O)COC1=CC=C(C)C=C1
InChI: InChI=1S/C11H14O3/c1-3-13-11(12)8-14-10-6-4-9(2)5-7-10/h4-7H,3,8H2,1-2H3
Instrument: Q Exactive Orbitrap (Thermo Scientific)
Instrument type: LC-ESI-QFT
Ms type: MS2
Ion mode: NEGATIVE
Ionization: ESI
Fragmentation mode: HCD
Collision energy: 90
Resolution: 17500
Column name: Acquity BEH C18 1.7um, 2.1x150mm (Waters)
Retention time: 17.576 min
Base peak: 193.0869
Precursor m/z: 193.087
Precursor type: [M-H]-
Precursor intensity: 57046391.67676
m/z	relative intensity	assigned
53.0032	1	C3HO-
55.019	2	C3H3O-
65.0033	3	C4HO-
65.0397	24	C5H5-
66.0112	1	C4H2O-
67.019	4	C4H3O-
68.9983	11	C3HO2-
69.0346	14	C4H5O-
70.0061	10	C3H2O2-
71.0503	136	C4H7O-
72.9931	3	C2HO3-
73.0659	2	C4H9O-
78.0113	2	C5H2O-
79.019	5	C5H3O-
79.9904	4	C4O2-
80.9982	3	C4HO2-
82.0061	45	C4H2O2-
83.0141	1	C4H3O2-
86.0009	3	C3H2O3-
91.019	88	C6H3O-
92.0268	332	C6H4O-
93.0346	999	C6H5O-
95.0139	447	C5H3O2-
97.0295	6	C5H5O2-
98.0012	3	C4H2O3-
106.0061	24	C6H2O2-
107.014	2	C6H3O2-
108.0217	420	C6H4O2-
109.0294	1	C6H5O2-
119.014	1	C7H3O2-
121.0295	28	C7H5O2-
123.0088	53	C6H3O3-
125.0244	1	C6H5O3-
136.0165	15	C7H4O3-
137.0245	8	C7H5O3-
