Mass spectrum: Daidzein; LC-ESI-QFT; MS2; CE: 60; R=17500; [M-H]-
Name: Daidzein
Formula: C15H10O4
Exact mass: 254.0579
SMILES: OC1=CC=C(C=C1)C1=COC2=C(C=CC(O)=C2)C1=O
InChI: InChI=1S/C15H10O4/c16-10-3-1-9(2-4-10)13-8-19-14-7-11(17)5-6-12(14)15(13)18/h1-8,16-17H
Instrument: Q Exactive Orbitrap (Thermo Scientific)
Instrument type: LC-ESI-QFT
Ms type: MS2
Ion mode: NEGATIVE
Ionization: ESI
Fragmentation mode: HCD
Collision energy: 60
Resolution: 17500
Column name: Acquity BEH C18 1.7um, 2.1x150mm (Waters)
Retention time: 15.096 min
Base peak: 253.0506
Precursor m/z: 253.0506
Precursor type: [M-H]-
Precursor intensity: 17165807.34863
m/z	relative intensity	assigned
63.024	2	C5H3-
65.0033	5	C4HO-
67.019	1	C4H3O-
69.0346	1	C4H5O-
75.024	1	C6H3-
89.0397	15	C7H5-
91.0189	239	C6H3O-
93.0346	8	C6H5O-
95.0503	8	C6H7O-
103.019	4	C7H3O-
105.0346	2	C7H5O-
107.0138	2	C6H3O2-
108.0216	1	C6H4O2-
109.0295	2	C6H5O2-
116.0267	5	C8H4O-
117.0345	44	C8H5O-
121.0293	1	C7H5O2-
123.0451	5	C7H7O2-
127.0552	2	C10H7-
130.0424	1	C9H6O-
132.0217	102	C8H4O2-
133.0295	268	C8H5O2-
135.0088	163	C7H3O3-
139.0553	1	C11H7-
141.0345	2	C10H5O-
141.0712	4	C11H9-
143.0502	8	C10H7O-
145.0296	3	C9H5O2-
151.0556	1	C12H7-
152.0631	6	C12H8-
153.0193	56	C7H5O4-
153.071	9	C12H9-
154.0423	3	C11H6O-
155.0502	12	C11H7O-
157.0293	3	C10H5O2-
157.0661	3	C11H9O-
158.0372	1	C10H6O2-
159.045	8	C10H7O2-
160.0165	18	C9H4O3-
161.0247	1	C9H5O3-
165.071	1	C13H9-
167.0503	19	C12H7O-
168.0581	14	C12H8O-
169.0659	74	C12H9O-
170.0373	1	C11H6O2-
171.0454	3	C11H7O2-
179.0502	3	C13H7O-
180.058	91	C13H8O-
181.0659	34	C13H9O-
182.0374	20	C12H6O2-
183.0451	35	C12H7O2-
184.0533	3	C12H8O2-
185.0243	1	C11H5O3-
185.0609	8	C12H9O2-
195.0451	61	C13H7O2-
196.053	125	C13H8O2-
197.0607	118	C13H9O2-
198.0322	4	C12H6O3-
207.0451	13	C14H7O2-
208.053	288	C14H8O2-
209.0608	202	C14H9O2-
210.0323	20	C13H6O3-
211.04	25	C13H7O3-
213.0556	5	C13H9O3-
223.0401	197	C14H7O3-
224.0479	358	C14H8O3-
225.0557	135	C14H9O3-
226.0275	9	C13H6O4-
227.0353	3	C13H7O4-
235.0397	4	C15H7O3-
236.0477	1	C15H8O3-
239.0349	2	C14H7O4-
251.0349	14	C15H7O4-
252.0428	75	C15H8O4-
253.0506	999	C15H9O4-
