Mass spectrum: Dicyclohexyl phthalate; LC-ESI-QFT; MS2; CE: 75; R=17500; [M+H]+
Name: Dicyclohexyl phthalate
Name: dicyclohexyl benzene-1,2-dicarboxylate
Formula: C20H26O4
Exact mass: 330.1831
SMILES: O=C(OC1CCCCC1)C1=C(C=CC=C1)C(=O)OC1CCCCC1
InChI: InChI=1S/C20H26O4/c21-19(23-15-9-3-1-4-10-15)17-13-7-8-14-18(17)20(22)24-16-11-5-2-6-12-16/h7-8,13-16H,1-6,9-12H2
Instrument: Q Exactive Orbitrap (Thermo Scientific)
Instrument type: LC-ESI-QFT
Ms type: MS2
Ion mode: POSITIVE
Ionization: ESI
Fragmentation mode: HCD
Collision energy: 75
Resolution: 17500
Column name: Acquity BEH C18 1.7um, 2.1x150mm (Waters)
Retention time: 20.195 min
Base peak: 79.0211
Precursor m/z: 331.1904
Precursor type: [M+H]+
Precursor intensity: 4875915.546875
m/z	relative intensity	assigned
65.0386	56	C5H5+
121.0284	177	C7H5O2+
149.0234	999	C8H5O3+
163.0389	29	C9H7O3+
181.0498	38	C9H9O4+
