Mass spectrum: 3,3`-Sulphonyldianiline; LC-ESI-QFT; MS2; CE: 15; R=17500; [M+H]+
Name: 3,3'-Sulphonyldianiline
Name: 3,3'-Sulfonyldianiline
Name: 3-(3-aminophenyl)sulfonylaniline
Formula: C12H12N2O2S
Exact mass: 248.0619
SMILES: NC1=CC=CC(=C1)S(=O)(=O)C1=CC(N)=CC=C1
InChI: InChI=1S/C12H12N2O2S/c13-9-3-1-5-11(7-9)17(15,16)12-6-2-4-10(14)8-12/h1-8H,13-14H2
Instrument: Q Exactive Orbitrap (Thermo Scientific)
Instrument type: LC-ESI-QFT
Ms type: MS2
Ion mode: POSITIVE
Ionization: ESI
Fragmentation mode: HCD
Collision energy: 15
Resolution: 17500
Column name: Acquity BEH C18 1.7um, 2.1x150mm (Waters)
Retention time: 10.897 min
Base peak: 79.0212
Precursor m/z: 249.0692
Precursor type: [M+H]+
Precursor intensity: 5718777.75
m/z	relative intensity	assigned
65.0387	1	C5H5+
68.0494	7	C4H6N+
78.0338	1	C5H4N+
92.0493	19	C6H6N+
93.0573	11	C6H7N+
96.0443	1	C5H6NO+
108.0444	68	C6H6NO+
110.06	1	C6H8NO+
120.0556	1	C8H8O+
140.0166	1	C6H6NOS+
156.0114	879	C6H6NO2S+
188.9902	3	C9H3NO2S+
249.0693	999	C12H13N2O2S+
