Mass spectrum: Daidzein; LC-ESI-QFT; MS2; CE: 15; R=17500; [M-H]-
Name: Daidzein
Formula: C15H10O4
Exact mass: 254.0579
SMILES: OC1=CC=C(C=C1)C1=COC2=C(C=CC(O)=C2)C1=O
InChI: InChI=1S/C15H10O4/c16-10-3-1-9(2-4-10)13-8-19-14-7-11(17)5-6-12(14)15(13)18/h1-8,16-17H
Instrument: Q Exactive Orbitrap (Thermo Scientific)
Instrument type: LC-ESI-QFT
Ms type: MS2
Ion mode: NEGATIVE
Ionization: ESI
Fragmentation mode: HCD
Collision energy: 15
Resolution: 17500
Column name: Acquity BEH C18 1.7um, 2.1x150mm (Waters)
Retention time: 17.857 min
Base peak: 253.0506
Precursor m/z: 253.0506
Precursor type: [M-H]-
Precursor intensity: 36397151.78906
m/z	relative intensity	assigned
252.043	1	C15H8O4-
253.0505	999	C15H9O4-
