Mass spectrum: 2-tert-Butyl-4-methoxyphenol; LC-ESI-QFT; MS2; CE: 60; R=17500; [M-H]-
Name: 2-tert-Butyl-4-methoxyphenol
Formula: C11H16O2
Exact mass: 180.1150
SMILES: COC1=CC=C(O)C(=C1)C(C)(C)C
InChI: InChI=1S/C11H16O2/c1-11(2,3)9-7-8(13-4)5-6-10(9)12/h5-7,12H,1-4H3
Instrument: Q Exactive Orbitrap (Thermo Scientific)
Instrument type: LC-ESI-QFT
Ms type: MS2
Ion mode: NEGATIVE
Ionization: ESI
Fragmentation mode: HCD
Collision energy: 60
Resolution: 17500
Column name: Acquity BEH C18 1.7um, 2.1x150mm (Waters)
Retention time: 18.144 min
Base peak: 112.9856
Precursor m/z: 179.1078
Precursor type: [M-H]-
Precursor intensity: 324163.7548828
m/z	relative intensity	assigned
136.0531	33	C8H8O2-
151.0763	91	C9H11O2-
163.0765	52	C10H11O2-
179.1078	999	C11H15O2-
