Mass spectrum: Benzyl salicylate; LC-ESI-QFT; MS2; CE: 45; R=17500; [M-H]-
Name: Benzyl salicylate
Name: benzyl 2-hydroxybenzoate
Formula: C14H12O3
Exact mass: 228.0786
SMILES: OC1=C(C=CC=C1)C(=O)OCC1=CC=CC=C1
InChI: InChI=1S/C14H12O3/c15-13-9-5-4-8-12(13)14(16)17-10-11-6-2-1-3-7-11/h1-9,15H,10H2
Instrument: Q Exactive Orbitrap (Thermo Scientific)
Instrument type: LC-ESI-QFT
Ms type: MS2
Ion mode: NEGATIVE
Ionization: ESI
Fragmentation mode: HCD
Collision energy: 45
Resolution: 17500
Column name: Acquity BEH C18 1.7um, 2.1x150mm (Waters)
Retention time: 17.501 min
Base peak: 227.0713
Precursor m/z: 227.0714
Precursor type: [M-H]-
Precursor intensity: 78219480.00879
m/z	relative intensity	assigned
53.0033	1	C3HO-
66.0113	1	C4H2O-
67.019	4	C4H3O-
68.9982	14	C3HO2-
69.0346	10	C4H5O-
70.0061	10	C3H2O2-
71.0139	7	C3H3O2-
72.9931	5	C2HO3-
78.0112	4	C5H2O-
79.019	10	C5H3O-
79.9903	6	C4O2-
80.9983	3	C4HO2-
82.0061	35	C4H2O2-
83.0139	1	C4H3O2-
86.001	1	C3H2O3-
91.019	1	C6H3O-
92.0268	256	C6H4O-
93.0346	4	C6H5O-
95.0139	535	C5H3O2-
97.0295	6	C5H5O2-
98.0008	1	C4H2O3-
106.0061	30	C6H2O2-
107.0139	4	C6H3O2-
107.0503	6	C7H7O-
108.0217	482	C6H4O2-
109.0296	1	C6H5O2-
121.0296	3	C7H5O2-
123.0088	64	C6H3O3-
136.0166	999	C7H4O3-
183.0816	19	C13H11O-
227.0714	43	C14H11O3-
