Mass spectrum: Benzyl salicylate; LC-ESI-QFT; MS2; CE: 30; R=17500; [M+H]+
Name: Benzyl salicylate
Name: benzyl 2-hydroxybenzoate
Formula: C14H12O3
Exact mass: 228.0786
SMILES: OC1=C(C=CC=C1)C(=O)OCC1=CC=CC=C1
InChI: InChI=1S/C14H12O3/c15-13-9-5-4-8-12(13)14(16)17-10-11-6-2-1-3-7-11/h1-9,15H,10H2
Instrument: Q Exactive Orbitrap (Thermo Scientific)
Instrument type: LC-ESI-QFT
Ms type: MS2
Ion mode: POSITIVE
Ionization: ESI
Fragmentation mode: HCD
Collision energy: 30
Resolution: 17500
Column name: Acquity BEH C18 1.7um, 2.1x150mm (Waters)
Retention time: 18.510 min
Base peak: 79.0212
Precursor m/z: 229.0859
Precursor type: [M+H]+
Precursor intensity: 1342071.703125
m/z	relative intensity	assigned
95.0493	6	C6H7O+
105.0336	496	C7H5O+
151.0391	999	C8H7O3+
172.0905	19	C12H12O+
229.0862	941	C14H13O3+
