Mass spectrum: 2-Butyl-1H-isoindole-1,3(2H)-dione; LC-ESI-QFT; MS2; CE: 15; R=17500; [M-H]-
Name: 2-Butyl-1H-isoindole-1,3(2H)-dione
Name: N-Butylphthalimide
Name: 2-butylisoindole-1,3-dione
Formula: C12H13NO2
Exact mass: 203.0946
SMILES: CCCCN1C(=O)C2=C(C=CC=C2)C1=O
InChI: InChI=1S/C12H13NO2/c1-2-3-8-13-11(14)9-6-4-5-7-10(9)12(13)15/h4-7H,2-3,8H2,1H3
Instrument: Q Exactive Orbitrap (Thermo Scientific)
Instrument type: LC-ESI-QFT
Ms type: MS2
Ion mode: NEGATIVE
Ionization: ESI
Fragmentation mode: HCD
Collision energy: 15
Resolution: 17500
Column name: Acquity BEH C18 1.7um, 2.1x150mm (Waters)
Retention time: 15.736 min
Base peak: 284.0451
Precursor m/z: 202.0874
Precursor type: [M-H]-
Precursor intensity: 3229556.587891
m/z	relative intensity	assigned
55.0189	4	C3H3O-
65.0397	1	C5H5-
67.0188	2	C4H3O-
83.0502	106	C5H7O-
92.0506	392	C6H6N-
109.0294	999	C6H5O2-
116.0505	3	C8H6N-
131.0376	6	C8H5NO-
142.0661	7	C10H8N-
144.0456	2	C9H6NO-
156.0816	3	C11H10N-
158.0611	25	C10H8NO-
158.0975	7	C11H12N-
160.0768	20	C10H10NO-
184.0766	1	C12H10NO-
187.0641	13	C11H9NO2-
202.0874	473	C12H12NO2-
