Mass spectrum: Indole-3-butyric acid; LC-ESI-QFT; MS2; CE: 45; R=17500; [M+H]+
Name: Indole-3-butyric acid
Name: 4-(1H-indol-3-yl)butanoic acid
Formula: C12H13NO2
Exact mass: 203.0946
SMILES: OC(=O)CCCC1=CNC2=C1C=CC=C2
InChI: InChI=1S/C12H13NO2/c14-12(15)7-3-4-9-8-13-11-6-2-1-5-10(9)11/h1-2,5-6,8,13H,3-4,7H2,(H,14,15)
Instrument: Q Exactive Orbitrap (Thermo Scientific)
Instrument type: LC-ESI-QFT
Ms type: MS2
Ion mode: POSITIVE
Ionization: ESI
Fragmentation mode: HCD
Collision energy: 45
Resolution: 17500
Column name: Acquity BEH C18 1.7um, 2.1x150mm (Waters)
Retention time: 16.296 min
Base peak: 79.0211
Precursor m/z: 204.1019
Precursor type: [M+H]+
Precursor intensity: 25474178
m/z	relative intensity	assigned
67.0178	1	C4H3O+
70.065	1	C4H8N+
91.0542	5	C7H7+
103.0542	3	C8H7+
105.0699	2	C8H9+
115.0542	2	C9H7+
116.062	3	C9H8+
117.0574	6	C8H7N+
117.0699	5	C9H9+
118.0651	11	C8H8N+
120.0808	1	C8H10N+
130.0652	8	C9H8N+
131.0492	2	C9H7O+
131.073	12	C9H9N+
132.0808	22	C9H10N+
133.0886	7	C9H11N+
134.0966	1	C9H12N+
138.0915	1	C8H12NO+
144.0808	27	C10H10N+
145.0886	39	C10H11N+
146.0964	8	C10H12N+
148.1121	88	C10H14N+
158.0965	9	C11H12N+
159.044	3	C10H7O2+
159.1043	7	C11H13N+
160.1121	54	C11H14N+
161.0835	27	C10H11NO+
162.0916	3	C10H12NO+
164.0703	1	C9H10NO2+
174.0915	1	C11H12NO+
176.107	43	C11H14NO+
188.0702	2	C11H10NO2+
189.0785	27	C11H11NO2+
204.1019	999	C12H14NO2+
