Mass spectrum: Propylparaben; LC-ESI-QFT; MS2; CE: 30; R=17500; [M-H]-
Name: Propylparaben
Name: propyl 4-hydroxybenzoate
Formula: C10H12O3
Exact mass: 180.0786
SMILES: CCCOC(=O)C1=CC=C(O)C=C1
InChI: InChI=1S/C10H12O3/c1-2-7-13-10(12)8-3-5-9(11)6-4-8/h3-6,11H,2,7H2,1H3
Instrument: Q Exactive Orbitrap (Thermo Scientific)
Instrument type: LC-ESI-QFT
Ms type: MS2
Ion mode: NEGATIVE
Ionization: ESI
Fragmentation mode: HCD
Collision energy: 30
Resolution: 17500
Column name: Acquity BEH C18 1.7um, 2.1x150mm (Waters)
Retention time: 16.621 min
Base peak: 179.0714
Precursor m/z: 179.0714
Precursor type: [M-H]-
Precursor intensity: 42009942.6709
m/z	relative intensity	assigned
57.0345	1	C3H5O-
82.0062	2	C4H2O2-
91.0189	1	C6H3O-
92.0264	18	C6H4O-
93.0346	132	C6H5O-
95.0139	26	C5H3O2-
106.006	1	C6H2O2-
108.0217	24	C6H4O2-
119.0138	4	C7H3O2-
121.0294	2	C7H5O2-
123.0088	3	C6H3O3-
135.0815	1	C9H11O-
136.0166	336	C7H4O3-
137.0244	290	C7H5O3-
151.0761	1	C9H11O2-
179.0714	999	C10H11O3-
