Mass spectrum: Dicyclohexyl phthalate; LC-ESI-QFT; MS2; CE: 75; R=17500; [M-H]-
Name: Dicyclohexyl phthalate
Name: dicyclohexyl benzene-1,2-dicarboxylate
Formula: C20H26O4
Exact mass: 330.1831
SMILES: O=C(OC1CCCCC1)C1=C(C=CC=C1)C(=O)OC1CCCCC1
InChI: InChI=1S/C20H26O4/c21-19(23-15-9-3-1-4-10-15)17-13-7-8-14-18(17)20(22)24-16-11-5-2-6-12-16/h7-8,13-16H,1-6,9-12H2
Instrument: Q Exactive Orbitrap (Thermo Scientific)
Instrument type: LC-ESI-QFT
Ms type: MS2
Ion mode: NEGATIVE
Ionization: ESI
Fragmentation mode: HCD
Collision energy: 75
Resolution: 17500
Column name: Acquity BEH C18 1.7um, 2.1x150mm (Waters)
Retention time: 15.542 min
Base peak: 405.1916
Precursor m/z: 329.1758
Precursor type: [M-H]-
Precursor intensity: 6152136.786133
m/z	relative intensity	assigned
55.0189	5	C3H3O-
57.0346	304	C3H5O-
59.0137	2	C2H3O2-
65.0396	6	C5H5-
67.019	1	C4H3O-
69.0346	10	C4H5O-
71.0139	2	C3H3O2-
73.0295	1	C3H5O2-
79.0554	11	C6H7-
80.0268	9	C5H4O-
81.0346	22	C5H5O-
83.0502	7	C5H7O-
91.0553	17	C7H7-
93.0346	19	C6H5O-
93.071	6	C7H9-
94.0425	23	C6H6O-
95.0503	94	C6H7O-
96.0217	2	C5H4O2-
97.0659	46	C6H9O-
99.0451	4	C5H7O2-
105.071	6	C8H9-
106.0426	12	C7H6O-
107.0503	172	C7H7O-
107.0865	11	C8H11-
108.0217	37	C6H4O2-
109.0659	244	C7H9O-
111.0814	2	C7H11O-
117.0344	2	C8H5O-
119.0502	97	C8H7O-
120.058	7	C8H8O-
121.0296	14	C7H5O2-
121.0659	76	C8H9O-
122.0373	652	C7H6O2-
123.0452	170	C7H7O2-
123.0815	226	C8H11O-
124.0166	28	C6H4O3-
125.0244	2	C6H5O3-
125.0609	16	C7H9O2-
129.0345	2	C9H5O-
131.05	6	C9H7O-
133.0659	12	C9H9O-
134.0373	30	C8H6O2-
135.0452	67	C8H7O2-
135.0816	46	C9H11O-
136.053	173	C8H8O2-
137.0244	61	C7H5O3-
137.0608	787	C8H9O2-
138.032	6	C7H6O3-
143.0506	4	C10H7O-
145.0659	11	C10H9O-
146.0738	5	C10H10O-
147.0452	52	C9H7O2-
147.0814	12	C10H11O-
148.053	56	C9H8O2-
149.0608	999	C9H9O2-
150.0322	5	C8H6O3-
150.0685	5	C9H10O2-
151.04	26	C8H7O3-
153.0196	6	C7H5O4-
154.0272	84	C7H6O4-
157.0657	3	C11H9O-
159.0452	7	C10H7O2-
159.0817	13	C11H11O-
161.061	14	C10H9O2-
161.0972	33	C11H13O-
162.0688	7	C10H10O2-
163.0766	19	C10H11O2-
164.084	2	C10H12O2-
167.035	5	C8H7O4-
168.0428	18	C8H8O4-
171.0819	3	C12H11O-
173.0607	8	C11H9O2-
173.0969	2	C12H13O-
175.0766	10	C11H11O2-
175.1128	13	C12H15O-
176.0846	3	C11H12O2-
177.092	3	C11H13O2-
187.0765	9	C12H11O2-
187.113	3	C13H15O-
191.0717	2	C11H11O3-
199.0767	5	C13H11O2-
214.0995	3	C14H14O2-
241.1229	2	C16H17O2-
271.1342	8	C17H19O3-
