Mass spectrum: Vanillin isobutyrate; LC-ESI-QFT; MS2; CE: 15; R=17500; [M-H]-
Name: Vanillin isobutyrate
Name: (4-formyl-2-methoxyphenyl) 2-methylpropanoate
Formula: C12H14O4
Exact mass: 222.0892
SMILES: COC1=C(OC(=O)C(C)C)C=CC(C=O)=C1
InChI: InChI=1S/C12H14O4/c1-8(2)12(14)16-10-5-4-9(7-13)6-11(10)15-3/h4-8H,1-3H3
Instrument: Q Exactive Orbitrap (Thermo Scientific)
Instrument type: LC-ESI-QFT
Ms type: MS2
Ion mode: NEGATIVE
Ionization: ESI
Fragmentation mode: HCD
Collision energy: 15
Resolution: 17500
Column name: Acquity BEH C18 1.7um, 2.1x150mm (Waters)
Retention time: 16.054 min
Base peak: 221.0818
Precursor m/z: 221.0819
Precursor type: [M-H]-
Precursor intensity: 34368321.17285
m/z	relative intensity	assigned
57.0345	11	C3H5O-
73.0659	60	C4H9O-
75.0236	1	C6H3-
77.0396	2	C6H5-
93.0346	1	C6H5O-
119.0139	1	C7H3O2-
121.0294	999	C7H5O2-
147.0087	310	C8H3O3-
165.0193	83	C8H5O4-
179.0347	1	C9H7O4-
221.0819	231	C12H13O4-
