Mass spectrum: Emodin; LC-ESI-QFT; MS2; CE: 45; R=17500; [M-H]-
Name: Emodin
Name: 1,3,8-trihydroxy-6-methylanthracene-9,10-dione
Formula: C15H10O5
Exact mass: 270.0528
SMILES: CC1=CC(O)=C2C(=O)C3=C(O)C=C(O)C=C3C(=O)C2=C1
InChI: InChI=1S/C15H10O5/c1-6-2-8-12(10(17)3-6)15(20)13-9(14(8)19)4-7(16)5-11(13)18/h2-5,16-18H,1H3
Instrument: Q Exactive Orbitrap (Thermo Scientific)
Instrument type: LC-ESI-QFT
Ms type: MS2
Ion mode: NEGATIVE
Ionization: ESI
Fragmentation mode: HCD
Collision energy: 45
Resolution: 17500
Column name: Acquity BEH C18 1.7um, 2.1x150mm (Waters)
Retention time: 19.838 min
Base peak: 269.0455
Precursor m/z: 269.0455
Precursor type: [M-H]-
Precursor intensity: 68714434.82813
m/z	relative intensity	assigned
153.0709	1	C12H9-
169.0659	2	C12H9O-
180.0582	5	C13H8O-
181.066	20	C13H9O-
182.0374	3	C12H6O2-
185.0606	1	C12H9O2-
195.0453	1	C13H7O2-
196.0531	1	C13H8O2-
197.0608	23	C13H9O2-
207.0454	3	C14H7O2-
210.0324	12	C13H6O3-
213.0556	5	C13H9O3-
224.048	6	C14H8O3-
225.0558	347	C14H9O3-
227.035	12	C13H7O4-
240.0424	2	C14H8O4-
241.0507	102	C14H9O4-
254.0222	1	C14H6O5-
269.0456	999	C15H9O5-
