Mass spectrum: Daidzein; LC-ESI-QFT; MS2; CE: 90; R=17500; [M-H]-
Name: Daidzein
Formula: C15H10O4
Exact mass: 254.0579
SMILES: OC1=CC=C(C=C1)C1=COC2=C(C=CC(O)=C2)C1=O
InChI: InChI=1S/C15H10O4/c16-10-3-1-9(2-4-10)13-8-19-14-7-11(17)5-6-12(14)15(13)18/h1-8,16-17H
Instrument: Q Exactive Orbitrap (Thermo Scientific)
Instrument type: LC-ESI-QFT
Ms type: MS2
Ion mode: NEGATIVE
Ionization: ESI
Fragmentation mode: HCD
Collision energy: 90
Resolution: 17500
Column name: Acquity BEH C18 1.7um, 2.1x150mm (Waters)
Retention time: 17.857 min
Base peak: 253.0506
Precursor m/z: 253.0506
Precursor type: [M-H]-
Precursor intensity: 50797015.83398
m/z	relative intensity	assigned
55.0188	5	C3H3O-
61.0084	4	C5H-
62.0161	1	C5H2-
63.024	999	C5H3-
63.9955	10	C4O-
65.0033	695	C4HO-
67.019	2	C4H3O-
68.998	2	C3HO2-
77.0033	4	C5HO-
79.0189	27	C5H3O-
83.0139	27	C4H3O2-
89.0033	64	C6HO-
91.0189	1	C6H3O-
95.0139	1	C5H3O2-
101.0397	177	C8H5-
103.0191	1	C7H3O-
107.0139	71	C6H3O2-
115.0553	68	C9H7-
117.0346	16	C8H5O-
119.0502	166	C8H7O-
121.0295	2	C7H5O2-
127.0554	3	C10H7-
129.0349	1	C9H5O-
138.0475	4	C11H6-
139.0553	15	C11H7-
141.0346	3	C10H5O-
141.071	2	C11H9-
143.0502	150	C10H7O-
145.0295	129	C9H5O2-
148.0166	1	C8H4O3-
151.0038	4	C7H3O4-
151.055	1	C12H7-
152.0632	2	C12H8-
153.0712	1	C12H9-
155.0502	14	C11H7O-
157.0658	3	C11H9O-
165.0708	9	C13H9-
167.0502	21	C12H7O-
169.0659	3	C12H9O-
180.058	3	C13H8O-
181.0663	4	C13H9O-
185.0607	1	C12H9O2-
208.0533	2	C14H8O2-
209.0612	1	C14H9O2-
224.0477	1	C14H8O3-
253.0505	2	C15H9O4-
