Mass spectrum: Indole-3-butyric acid; LC-ESI-QFT; MS2; CE: 30; R=17500; [M+H]+
Name: Indole-3-butyric acid
Name: 4-(1H-indol-3-yl)butanoic acid
Formula: C12H13NO2
Exact mass: 203.0946
SMILES: OC(=O)CCCC1=CNC2=C1C=CC=C2
InChI: InChI=1S/C12H13NO2/c14-12(15)7-3-4-9-8-13-11-6-2-1-5-10(9)11/h1-2,5-6,8,13H,3-4,7H2,(H,14,15)
Instrument: Q Exactive Orbitrap (Thermo Scientific)
Instrument type: LC-ESI-QFT
Ms type: MS2
Ion mode: POSITIVE
Ionization: ESI
Fragmentation mode: HCD
Collision energy: 30
Resolution: 17500
Column name: Acquity BEH C18 1.7um, 2.1x150mm (Waters)
Retention time: 16.296 min
Base peak: 79.0211
Precursor m/z: 204.1019
Precursor type: [M+H]+
Precursor intensity: 26055599
m/z	relative intensity	assigned
118.0649	1	C8H8N+
132.0804	1	C9H10N+
145.0887	2	C10H11N+
148.112	3	C10H14N+
160.112	6	C11H14N+
176.1067	3	C11H14NO+
189.0782	5	C11H11NO2+
204.1017	999	C12H14NO2+
