Mass spectrum: Propylparaben; LC-ESI-QFT; MS2; CE: 45; R=17500; [M-H]-
Name: Propylparaben
Name: propyl 4-hydroxybenzoate
Formula: C10H12O3
Exact mass: 180.0786
SMILES: CCCOC(=O)C1=CC=C(O)C=C1
InChI: InChI=1S/C10H12O3/c1-2-7-13-10(12)8-3-5-9(11)6-4-8/h3-6,11H,2,7H2,1H3
Instrument: Q Exactive Orbitrap (Thermo Scientific)
Instrument type: LC-ESI-QFT
Ms type: MS2
Ion mode: NEGATIVE
Ionization: ESI
Fragmentation mode: HCD
Collision energy: 45
Resolution: 17500
Column name: Acquity BEH C18 1.7um, 2.1x150mm (Waters)
Retention time: 16.621 min
Base peak: 179.0714
Precursor m/z: 179.0714
Precursor type: [M-H]-
Precursor intensity: 40300644.27686
m/z	relative intensity	assigned
55.0191	1	C3H3O-
57.0345	19	C3H5O-
59.0502	4	C3H7O-
67.0189	2	C4H3O-
68.9982	8	C3HO2-
69.0347	7	C4H5O-
70.0061	3	C3H2O2-
71.0139	5	C3H3O2-
72.9931	3	C2HO3-
79.019	3	C5H3O-
79.9904	4	C4O2-
80.9984	2	C4HO2-
82.006	20	C4H2O2-
83.0139	1	C4H3O2-
91.019	32	C6H3O-
92.0268	104	C6H4O-
93.0346	934	C6H5O-
95.0139	296	C5H3O2-
97.0296	4	C5H5O2-
98.0011	1	C4H2O3-
106.0061	12	C6H2O2-
106.0425	2	C7H6O-
107.014	1	C6H3O2-
108.0217	271	C6H4O2-
109.0296	1	C6H5O2-
119.0138	26	C7H3O2-
121.0295	24	C7H5O2-
123.0088	37	C6H3O3-
135.0816	3	C9H11O-
136.0166	999	C7H4O3-
137.0244	726	C7H5O3-
151.0765	5	C9H11O2-
179.0714	726	C10H11O3-
