Mass spectrum: Ethyl 2-methoxybenzoate; LC-ESI-QFT; MS2; CE: 60; R=17500; [M-H]-
Name: Ethyl 2-methoxybenzoate
Formula: C10H12O3
Exact mass: 180.0786
SMILES: CCOC(=O)C1=C(OC)C=CC=C1
InChI: InChI=1S/C10H12O3/c1-3-13-10(11)8-6-4-5-7-9(8)12-2/h4-7H,3H2,1-2H3
Instrument: Q Exactive Orbitrap (Thermo Scientific)
Instrument type: LC-ESI-QFT
Ms type: MS2
Ion mode: NEGATIVE
Ionization: ESI
Fragmentation mode: HCD
Collision energy: 60
Resolution: 17500
Column name: Acquity BEH C18 1.7um, 2.1x150mm (Waters)
Retention time: 16.579 min
Base peak: 179.0713
Precursor m/z: 179.0714
Precursor type: [M-H]-
Precursor intensity: 36794081.10449
m/z	relative intensity	assigned
53.0033	1	C3HO-
57.0346	53	C3H5O-
59.0502	7	C3H7O-
67.0189	3	C4H3O-
68.9982	9	C3HO2-
69.0346	7	C4H5O-
70.006	7	C3H2O2-
71.0139	5	C3H3O2-
72.9931	3	C2HO3-
78.0112	2	C5H2O-
79.0189	7	C5H3O-
79.9904	3	C4O2-
80.9983	2	C4HO2-
82.006	35	C4H2O2-
91.019	62	C6H3O-
92.0268	304	C6H4O-
93.0346	999	C6H5O-
95.0138	377	C5H3O2-
97.0296	5	C5H5O2-
98.0011	1	C4H2O3-
106.0061	19	C6H2O2-
106.0426	1	C7H6O-
107.014	2	C6H3O2-
108.0217	350	C6H4O2-
109.0294	1	C6H5O2-
119.0137	17	C7H3O2-
121.0295	27	C7H5O2-
123.0088	54	C6H3O3-
136.0165	330	C7H4O3-
137.0244	232	C7H5O3-
151.0766	7	C9H11O2-
179.0714	98	C10H11O3-
