Mass spectrum: Terbutylazine; LC-ESI-QFT; MS2; CE: 15; R=17500; [M+H]+
Name: Terbutylazine
Name: Terbuthylazine
Name: 2-N-tert-butyl-6-chloro-4-N-ethyl-1,3,5-triazine-2,4-diamine
Formula: C9H16ClN5
Exact mass: 229.1094
SMILES: CCNC1=NC(NC(C)(C)C)=NC(Cl)=N1
InChI: InChI=1S/C9H16ClN5/c1-5-11-7-12-6(10)13-8(14-7)15-9(2,3)4/h5H2,1-4H3,(H2,11,12,13,14,15)
Instrument: Q Exactive Orbitrap (Thermo Scientific)
Instrument type: LC-ESI-QFT
Ms type: MS2
Ion mode: POSITIVE
Ionization: ESI
Fragmentation mode: HCD
Collision energy: 15
Resolution: 17500
Column name: Acquity BEH C18 1.7um, 2.1x150mm (Waters)
Retention time: 17.266 min
Base peak: 79.0211
Precursor m/z: 230.1167
Precursor type: [M+H]+
Precursor intensity: 22437421
m/z	relative intensity	assigned
104.0012	1	C2H3ClN3+
146.0227	11	C3H5ClN5+
146.0478	1	C5H9ClN3+
152.1183	2	C8H14N3+
188.0697	116	C6H11ClN5+
230.1166	999	C9H17ClN5+
