Mass spectrum: 2-(4-Hydroxybenzyl)phenol; LC-ESI-QFT; MS2; CE: 15; R=17500; [M-H]-
Name: 2-(4-Hydroxybenzyl)phenol
Name: 2-[(4-hydroxyphenyl)methyl]phenol
Formula: C13H12O2
Exact mass: 200.0837
SMILES: OC1=CC=C(CC2=C(O)C=CC=C2)C=C1
InChI: InChI=1S/C13H12O2/c14-12-7-5-10(6-8-12)9-11-3-1-2-4-13(11)15/h1-8,14-15H,9H2
Instrument: Q Exactive Orbitrap (Thermo Scientific)
Instrument type: LC-ESI-QFT
Ms type: MS2
Ion mode: NEGATIVE
Ionization: ESI
Fragmentation mode: HCD
Collision energy: 15
Resolution: 17500
Column name: Acquity BEH C18 1.7um, 2.1x150mm (Waters)
Retention time: 16.746 min
Base peak: 127.0068
Precursor m/z: 199.0765
Precursor type: [M-H]-
Precursor intensity: 35647969.46094
m/z	relative intensity	assigned
93.0346	999	C6H5O-
199.0764	676	C13H11O2-
