Mass spectrum: Dicyclohexyl phthalate; LC-ESI-QFT; MS2; CE: 15; R=17500; [M-H]-
Name: Dicyclohexyl phthalate
Name: dicyclohexyl benzene-1,2-dicarboxylate
Formula: C20H26O4
Exact mass: 330.1831
SMILES: O=C(OC1CCCCC1)C1=C(C=CC=C1)C(=O)OC1CCCCC1
InChI: InChI=1S/C20H26O4/c21-19(23-15-9-3-1-4-10-15)17-13-7-8-14-18(17)20(22)24-16-11-5-2-6-12-16/h7-8,13-16H,1-6,9-12H2
Instrument: Q Exactive Orbitrap (Thermo Scientific)
Instrument type: LC-ESI-QFT
Ms type: MS2
Ion mode: NEGATIVE
Ionization: ESI
Fragmentation mode: HCD
Collision energy: 15
Resolution: 17500
Column name: Acquity BEH C18 1.7um, 2.1x150mm (Waters)
Retention time: 15.542 min
Base peak: 405.1916
Precursor m/z: 329.1758
Precursor type: [M-H]-
Precursor intensity: 6689209.336914
m/z	relative intensity	assigned
109.0658	5	C7H9O-
123.0452	2	C7H7O2-
123.0815	19	C8H11O-
125.0607	20	C7H9O2-
135.0815	3	C9H11O-
137.0607	21	C8H9O2-
149.0612	4	C9H9O2-
179.1078	5	C11H15O2-
203.1078	6	C13H15O2-
257.1546	8	C17H21O2-
257.1904	2	C18H25O-
259.1339	2	C16H19O3-
271.1339	3	C17H19O3-
301.1808	150	C19H25O3-
311.1653	63	C20H23O3-
329.1757	999	C20H25O4-
