Mass spectrum: Ethyl 2-methoxybenzoate; LC-ESI-QFT; MS2; CE: 75; R=17500; [M-H]-
Name: Ethyl 2-methoxybenzoate
Formula: C10H12O3
Exact mass: 180.0786
SMILES: CCOC(=O)C1=C(OC)C=CC=C1
InChI: InChI=1S/C10H12O3/c1-3-13-10(11)8-6-4-5-7-9(8)12-2/h4-7H,3H2,1-2H3
Instrument: Q Exactive Orbitrap (Thermo Scientific)
Instrument type: LC-ESI-QFT
Ms type: MS2
Ion mode: NEGATIVE
Ionization: ESI
Fragmentation mode: HCD
Collision energy: 75
Resolution: 17500
Column name: Acquity BEH C18 1.7um, 2.1x150mm (Waters)
Retention time: 16.579 min
Base peak: 179.0713
Precursor m/z: 179.0714
Precursor type: [M-H]-
Precursor intensity: 39000540.38086
m/z	relative intensity	assigned
53.0032	1	C3HO-
57.0345	92	C3H5O-
59.0501	5	C3H7O-
65.0034	2	C4HO-
65.0396	7	C5H5-
67.019	4	C4H3O-
68.9982	10	C3HO2-
69.0346	10	C4H5O-
70.006	7	C3H2O2-
71.0139	6	C3H3O2-
72.9931	5	C2HO3-
78.0111	3	C5H2O-
79.0189	5	C5H3O-
79.9904	3	C4O2-
80.9982	3	C4HO2-
82.006	41	C4H2O2-
83.0141	1	C4H3O2-
91.019	85	C6H3O-
92.0268	259	C6H4O-
93.0346	999	C6H5O-
95.0138	441	C5H3O2-
97.0296	7	C5H5O2-
98.0011	2	C4H2O3-
106.006	23	C6H2O2-
107.0139	2	C6H3O2-
108.0217	429	C6H4O2-
109.0293	2	C6H5O2-
119.0139	6	C7H3O2-
121.0295	31	C7H5O2-
123.0088	59	C6H3O3-
136.0166	77	C7H4O3-
136.053	6	C8H8O2-
137.0244	51	C7H5O3-
151.0763	5	C9H11O2-
179.0714	8	C10H11O3-
