Mass spectrum: 3,3`-Sulphonyldianiline; LC-ESI-QFT; MS2; CE: 75; R=17500; [M+H]+
Name: 3,3'-Sulphonyldianiline
Name: 3,3'-Sulfonyldianiline
Name: 3-(3-aminophenyl)sulfonylaniline
Formula: C12H12N2O2S
Exact mass: 248.0619
SMILES: NC1=CC=CC(=C1)S(=O)(=O)C1=CC(N)=CC=C1
InChI: InChI=1S/C12H12N2O2S/c13-9-3-1-5-11(7-9)17(15,16)12-6-2-4-10(14)8-12/h1-8H,13-14H2
Instrument: Q Exactive Orbitrap (Thermo Scientific)
Instrument type: LC-ESI-QFT
Ms type: MS2
Ion mode: POSITIVE
Ionization: ESI
Fragmentation mode: HCD
Collision energy: 75
Resolution: 17500
Column name: Acquity BEH C18 1.7um, 2.1x150mm (Waters)
Retention time: 10.897 min
Base peak: 79.0212
Precursor m/z: 249.0692
Precursor type: [M+H]+
Precursor intensity: 5498666.71875
m/z	relative intensity	assigned
53.0022	6	C3HO+
53.0386	8	C4H5+
53.9974	1	C2NO+
54.0338	4	C3H4N+
55.0179	5	C3H3O+
55.0544	1	C4H7+
56.0495	1	C3H6N+
61.0107	4	C2H5S+
65.0386	848	C5H5+
66.0464	24	C5H6+
67.0178	1	C4H3O+
67.0416	1	C4H5N+
67.0542	1	C5H7+
68.0494	76	C4H6N+
69.0335	6	C4H5O+
78.0339	10	C5H4N+
79.0178	11	C5H3O+
80.0494	229	C5H6N+
82.0287	3	C4H4NO+
83.0491	3	C5H7O+
90.0339	2	C6H4N+
92.0495	867	C6H6N+
93.0573	353	C6H7N+
95.0366	3	C5H5NO+
96.0445	12	C5H6NO+
108.0444	999	C6H6NO+
109.0522	5	C6H7NO+
110.06	250	C6H8NO+
114.9708	1	C3HNO2S+
120.0556	15	C8H8O+
124.0216	3	C6H6NS+
124.0758	5	C7H10NO+
140.0164	3	C6H6NOS+
141.0195	1	C9H3NO+
156.0114	6	C6H6NO2S+
