Mass spectrum: Emodin; LC-ESI-QFT; MS2; CE: 60; R=17500; [M-H]-
Name: Emodin
Name: 1,3,8-trihydroxy-6-methylanthracene-9,10-dione
Formula: C15H10O5
Exact mass: 270.0528
SMILES: CC1=CC(O)=C2C(=O)C3=C(O)C=C(O)C=C3C(=O)C2=C1
InChI: InChI=1S/C15H10O5/c1-6-2-8-12(10(17)3-6)15(20)13-9(14(8)19)4-7(16)5-11(13)18/h2-5,16-18H,1H3
Instrument: Q Exactive Orbitrap (Thermo Scientific)
Instrument type: LC-ESI-QFT
Ms type: MS2
Ion mode: NEGATIVE
Ionization: ESI
Fragmentation mode: HCD
Collision energy: 60
Resolution: 17500
Column name: Acquity BEH C18 1.7um, 2.1x150mm (Waters)
Retention time: 19.838 min
Base peak: 269.0455
Precursor m/z: 269.0455
Precursor type: [M-H]-
Precursor intensity: 75743368.21875
m/z	relative intensity	assigned
65.0395	1	C5H5-
89.0397	2	C7H5-
91.019	2	C6H3O-
105.0345	15	C7H5O-
115.0551	1	C9H7-
131.0503	1	C9H7O-
133.0296	7	C8H5O2-
139.0554	3	C11H7-
141.071	3	C11H9-
143.0502	1	C10H7O-
152.063	9	C12H8-
153.071	28	C12H9-
154.0425	6	C11H6O-
155.0505	3	C11H7O-
157.0658	9	C11H9O-
158.0377	1	C10H6O2-
159.045	1	C10H7O2-
167.05	1	C12H7O-
168.0582	1	C12H8O-
169.0658	27	C12H9O-
170.0371	1	C11H6O2-
171.0452	24	C11H7O2-
173.0609	3	C11H9O2-
175.04	1	C10H7O3-
179.0502	18	C13H7O-
180.0581	77	C13H8O-
181.0659	158	C13H9O-
182.0373	90	C12H6O2-
183.0454	6	C12H7O2-
184.0529	1	C12H8O2-
185.0608	51	C12H9O2-
186.0323	3	C11H6O3-
187.0401	1	C11H7O3-
195.045	17	C13H7O2-
196.053	32	C13H8O2-
197.0607	195	C13H9O2-
198.0315	2	C12H6O3-
199.04	10	C12H7O3-
201.0559	7	C12H9O3-
207.0452	29	C14H7O2-
210.0322	125	C13H6O3-
211.0394	1	C13H7O3-
212.048	4	C13H8O3-
213.0556	69	C13H9O3-
214.0267	1	C12H6O4-
223.0404	6	C14H7O3-
224.048	97	C14H8O3-
225.0557	999	C14H9O3-
226.0262	4	C13H6O4-
227.0349	82	C13H7O4-
228.0424	4	C13H8O4-
240.0428	57	C14H8O4-
241.0506	370	C14H9O4-
251.0349	1	C15H7O4-
254.022	2	C14H6O5-
256.0376	9	C14H8O5-
268.0378	3	C15H8O5-
269.0455	548	C15H9O5-
