Mass spectrum: 4-Methylbenzophenone; LC-ESI-QFT; MS2; CE: 90; R=17500; [M+H]+
Name: 4-Methylbenzophenone
Name: (4-methylphenyl)-phenylmethanone
Formula: C14H12O
Exact mass: 196.0888
SMILES: CC1=CC=C(C=C1)C(=O)C1=CC=CC=C1
InChI: InChI=1S/C14H12O/c1-11-7-9-13(10-8-11)14(15)12-5-3-2-4-6-12/h2-10H,1H3
Instrument: Q Exactive Orbitrap (Thermo Scientific)
Instrument type: LC-ESI-QFT
Ms type: MS2
Ion mode: POSITIVE
Ionization: ESI
Fragmentation mode: HCD
Collision energy: 90
Resolution: 17500
Column name: Acquity BEH C18 1.7um, 2.1x150mm (Waters)
Retention time: 18.330 min
Base peak: 79.0211
Precursor m/z: 197.0961
Precursor type: [M+H]+
Precursor intensity: 1487421.625
m/z	relative intensity	assigned
50.0151	17	C4H2+
51.023	37	C4H3+
53.0386	325	C4H5+
55.0179	21	C3H3O+
65.0386	142	C5H5+
67.0542	9	C5H7+
77.0385	117	C6H5+
81.0336	35	C5H5O+
91.0543	760	C7H7+
94.0414	32	C6H6O+
95.0492	999	C6H7O+
105.0336	583	C7H5O+
109.0648	137	C7H9O+
115.0543	106	C9H7+
119.0493	173	C8H7O+
141.0699	87	C11H9+
168.0573	19	C12H8O+
169.0648	9	C12H9O+
