Mass spectrum: Indole-3-butyric acid; LC-ESI-QFT; MS2; CE: 90; R=17500; [M-H]-
Name: Indole-3-butyric acid
Name: 4-(1H-indol-3-yl)butanoic acid
Formula: C12H13NO2
Exact mass: 203.0946
SMILES: OC(=O)CCCC1=CNC2=C1C=CC=C2
InChI: InChI=1S/C12H13NO2/c14-12(15)7-3-4-9-8-13-11-6-2-1-5-10(9)11/h1-2,5-6,8,13H,3-4,7H2,(H,14,15)
Instrument: Q Exactive Orbitrap (Thermo Scientific)
Instrument type: LC-ESI-QFT
Ms type: MS2
Ion mode: NEGATIVE
Ionization: ESI
Fragmentation mode: HCD
Collision energy: 90
Resolution: 17500
Column name: Acquity BEH C18 1.7um, 2.1x150mm (Waters)
Retention time: 15.736 min
Base peak: 284.0451
Precursor m/z: 202.0874
Precursor type: [M-H]-
Precursor intensity: 3133484.340332
m/z	relative intensity	assigned
55.0189	31	C3H3O-
65.0397	14	C5H5-
67.0189	13	C4H3O-
68.9982	3	C3HO2-
81.0347	10	C5H5O-
83.0502	5	C5H7O-
92.0506	999	C6H6N-
108.0218	4	C6H4O2-
109.0295	53	C6H5O2-
116.0505	3	C8H6N-
131.0377	7	C8H5NO-
144.0455	18	C9H6NO-
158.0611	6	C10H8NO-
