Mass spectrum: Dinoterb; LC-ESI-QFT; MS2; CE: 90; R=17500; [M-H]-
Name: Dinoterb
Name: 2-tert-butyl-4,6-dinitrophenol
Formula: C10H12N2O5
Exact mass: 240.0746
SMILES: CC(C)(C)C1=CC(=CC(=C1O)[N+]([O-])=O)[N+]([O-])=O
InChI: InChI=1S/C10H12N2O5/c1-10(2,3)7-4-6(11(14)15)5-8(9(7)13)12(16)17/h4-5,13H,1-3H3
Instrument: Q Exactive Orbitrap (Thermo Scientific)
Instrument type: LC-ESI-QFT
Ms type: MS2
Ion mode: NEGATIVE
Ionization: ESI
Fragmentation mode: HCD
Collision energy: 90
Resolution: 17500
Column name: Acquity BEH C18 1.7um, 2.1x150mm (Waters)
Retention time: 18.846 min
Base peak: 239.0673
Precursor m/z: 239.0673
Precursor type: [M-H]-
Precursor intensity: 94819506.30078
m/z	relative intensity	assigned
55.0189	17	C3H3O-
64.0193	2	C4H2N-
65.0033	2	C4HO-
65.0397	11	C5H5-
65.9985	8	C3NO-
66.035	2	C4H4N-
67.019	3	C4H3O-
68.9981	7	C3HO2-
77.0398	2	C6H5-
79.0553	4	C6H7-
80.0268	6	C5H4O-
81.0347	3	C5H5O-
81.071	8	C6H9-
91.0553	63	C7H7-
93.0346	8	C6H5O-
95.0139	8	C5H3O2-
95.0502	7	C6H7O-
107.0503	12	C7H7O-
107.0866	14	C8H11-
108.0217	10	C6H4O2-
108.0453	2	C6H6NO-
109.0169	4	C5H3NO2-
109.0294	4	C6H5O2-
119.0502	9	C8H7O-
121.0295	26	C7H5O2-
122.0373	2	C7H6O2-
123.0326	69	C6H5NO2-
123.0452	5	C7H7O2-
125.0118	4	C5H3NO3-
128.0504	8	C9H6N-
131.0503	2	C9H7O-
132.0454	13	C8H6NO-
134.0248	106	C7H4NO2-
135.0327	6	C7H5NO2-
135.0452	52	C8H7O2-
136.053	86	C8H8O2-
139.0275	6	C6H5NO3-
146.0246	5	C8H4NO2-
146.0373	21	C9H6O2-
146.0608	2	C9H8NO-
147.0453	13	C9H7O2-
147.0815	2	C10H11O-
148.0405	246	C8H6NO2-
149.0482	427	C8H7NO2-
150.056	199	C8H8NO2-
151.0274	19	C7H5NO3-
151.0764	99	C9H11O2-
152.0355	1	C7H6NO3-
155.0223	2	C6H5NO4-
159.0325	2	C9H5NO2-
160.0408	10	C9H6NO2-
162.0197	237	C8H4NO3-
163.0274	3	C8H5NO3-
163.04	23	C9H7O3-
164.0354	194	C8H6NO3-
164.0717	155	C9H10NO2-
166.0511	2	C8H8NO3-
168.0427	5	C8H8O4-
176.0353	999	C9H6NO3-
177.0431	130	C9H7NO3-
178.0509	82	C9H8NO3-
179.0714	6	C10H11O3-
180.0304	3	C8H6NO4-
192.0667	14	C10H10NO3-
193.0256	4	C8H5N2O4-
193.0379	9	C9H7NO4-
194.0457	23	C9H8NO4-
207.0411	328	C9H7N2O4-
208.0615	10	C10H10NO4-
223.0363	6	C9H7N2O5-
239.067	2	C10H11N2O5-
