Mass spectrum: Ethylparaben; LC-ESI-QFT; MS2; CE: 60; R=17500; [M-H]-
Name: Ethylparaben
Name: ethyl 4-hydroxybenzoate
Formula: C9H10O3
Exact mass: 166.0630
SMILES: CCOC(=O)C1=CC=C(O)C=C1
InChI: InChI=1S/C9H10O3/c1-2-12-9(11)7-3-5-8(10)6-4-7/h3-6,10H,2H2,1H3
Instrument: Q Exactive Orbitrap (Thermo Scientific)
Instrument type: LC-ESI-QFT
Ms type: MS2
Ion mode: NEGATIVE
Ionization: ESI
Fragmentation mode: HCD
Collision energy: 60
Resolution: 17500
Column name: Acquity BEH C18 1.7um, 2.1x150mm (Waters)
Retention time: 15.443 min
Base peak: 165.0556
Precursor m/z: 165.0557
Precursor type: [M-H]-
Precursor intensity: 27105192.30176
m/z	relative intensity	assigned
53.0032	1	C3HO-
65.0396	2	C5H5-
67.0191	1	C4H3O-
68.9981	4	C3HO2-
69.0346	4	C4H5O-
70.0061	4	C3H2O2-
71.0139	2	C3H3O2-
78.0112	1	C5H2O-
79.019	2	C5H3O-
79.9904	2	C4O2-
80.9981	1	C4HO2-
82.0061	20	C4H2O2-
91.019	28	C6H3O-
92.0268	146	C6H4O-
93.0346	999	C6H5O-
95.0139	179	C5H3O2-
97.0295	2	C5H5O2-
106.006	9	C6H2O2-
107.014	1	C6H3O2-
107.0502	1	C7H7O-
108.0217	178	C6H4O2-
109.0293	1	C6H5O2-
119.0139	7	C7H3O2-
121.0296	9	C7H5O2-
123.0088	22	C6H3O3-
136.0166	157	C7H4O3-
137.0244	264	C7H5O3-
165.0557	54	C9H9O3-
