Mass spectrum: 2,6-Pyridinedicarboxylic acid; LC-ESI-QFT; MS2; CE: 60; R=17500; [M-H]-
Name: 2,6-Pyridinedicarboxylic acid
Formula: C7H5NO4
Exact mass: 167.0219
SMILES: OC(=O)C1=CC=CC(=N1)C(O)=O
InChI: InChI=1S/C7H5NO4/c9-6(10)4-2-1-3-5(8-4)7(11)12/h1-3H,(H,9,10)(H,11,12)
Instrument: Q Exactive Orbitrap (Thermo Scientific)
Instrument type: LC-ESI-QFT
Ms type: MS2
Ion mode: NEGATIVE
Ionization: ESI
Fragmentation mode: HCD
Collision energy: 60
Resolution: 17500
Column name: Acquity BEH C18 1.7um, 2.1x150mm (Waters)
Retention time: 14.715 min
Base peak: 112.9856
Precursor m/z: 166.0146
Precursor type: [M-H]-
Precursor intensity: 294844.1818848
m/z	relative intensity	assigned
108.0217	60	C6H4O2-
122.0247	999	C6H4NO2-
166.0149	48	C7H4NO4-
