Mass spectrum: Amitriptyline; LC-ESI-QFT; MS2; CE: 90; R=17500; [M+H]+
Name: Amitriptyline
Name: N,N-dimethyl-3-(2-tricyclo[9.4.0.03,8]pentadeca-1(15),3,5,7,11,13-hexaenylidene)propan-1-amine
Formula: C20H23N
Exact mass: 277.1830
SMILES: CN(C)CCC=C1C2=CC=CC=C2CCC2=C1C=CC=C2
InChI: InChI=1S/C20H23N/c1-21(2)15-7-12-20-18-10-5-3-8-16(18)13-14-17-9-4-6-11-19(17)20/h3-6,8-12H,7,13-15H2,1-2H3
Instrument: Q Exactive Orbitrap (Thermo Scientific)
Instrument type: LC-ESI-QFT
Ms type: MS2
Ion mode: POSITIVE
Ionization: ESI
Fragmentation mode: HCD
Collision energy: 90
Resolution: 17500
Column name: Acquity BEH C18 1.7um, 2.1x150mm (Waters)
Retention time: 15.664 min
Base peak: 79.0211
Precursor m/z: 278.1903
Precursor type: [M+H]+
Precursor intensity: 71091413
m/z	relative intensity	assigned
53.0386	20	C4H5+
55.0544	5	C4H7+
56.0495	3	C3H6N+
58.0652	90	C3H8N+
63.0229	2	C5H3+
65.0385	92	C5H5+
67.0542	2	C5H7+
68.0494	2	C4H6N+
69.0572	2	C4H7N+
70.0651	75	C4H8N+
71.0729	1	C4H9N+
72.0807	3	C4H10N+
77.0385	16	C6H5+
79.0542	156	C6H7+
82.065	2	C5H8N+
84.0808	167	C5H10N+
85.0886	7	C5H11N+
91.0542	999	C7H7+
103.0542	129	C8H7+
105.0699	331	C8H9+
115.0542	410	C9H7+
116.0621	9	C9H8+
117.0699	302	C9H9+
127.0542	13	C10H7+
128.062	145	C10H8+
129.0698	124	C10H9+
131.0856	3	C10H11+
141.0698	71	C11H9+
142.0776	6	C11H10+
152.062	21	C12H8+
153.0698	60	C12H9+
154.0777	25	C12H10+
155.0855	32	C12H11+
165.0699	90	C13H9+
166.0779	2	C13H10+
167.0856	1	C13H11+
176.0621	4	C14H8+
177.0701	7	C14H9+
178.0777	362	C14H10+
179.0855	54	C14H11+
189.0699	128	C15H9+
190.0777	147	C15H10+
191.0855	305	C15H11+
192.0933	37	C15H12+
193.1013	8	C15H13+
202.0777	184	C16H10+
203.0855	371	C16H11+
204.0934	92	C16H12+
205.1011	23	C16H13+
215.0855	42	C17H11+
216.0934	22	C17H12+
217.1011	154	C17H13+
218.1091	28	C17H14+
231.1178	1	C18H15+
