Mass spectrum: Piperonyl butoxide; LC-ESI-QFT; MS2; CE: 75; R=17500; [M-H]-
Name: Piperonyl butoxide
Name: 5-[2-(2-butoxyethoxy)ethoxymethyl]-6-propyl-1,3-benzodioxole
Formula: C19H30O5
Exact mass: 338.2093
SMILES: CCCCOCCOCCOCC1=CC2=C(OCO2)C=C1CCC
InChI: InChI=1S/C19H30O5/c1-3-5-7-20-8-9-21-10-11-22-14-17-13-19-18(23-15-24-19)12-16(17)6-4-2/h12-13H,3-11,14-15H2,1-2H3
Instrument: Q Exactive Orbitrap (Thermo Scientific)
Instrument type: LC-ESI-QFT
Ms type: MS2
Ion mode: NEGATIVE
Ionization: ESI
Fragmentation mode: HCD
Collision energy: 75
Resolution: 17500
Column name: Acquity BEH C18 1.7um, 2.1x150mm (Waters)
Retention time: 20.612 min
Base peak: 112.9856
Precursor m/z: 337.202
Precursor type: [M-H]-
Precursor intensity: 1617850.913086
m/z	relative intensity	assigned
65.0034	57	C4HO-
67.0189	82	C4H3O-
68.9983	30	C3HO2-
69.0347	90	C4H5O-
71.014	32	C3H3O2-
72.9931	43	C2HO3-
78.0113	54	C5H2O-
79.0188	23	C5H3O-
81.0347	25	C5H5O-
82.0059	17	C4H2O2-
83.014	70	C4H3O2-
95.0139	58	C5H3O2-
97.0295	78	C5H5O2-
106.006	116	C6H2O2-
107.0139	24	C6H3O2-
110.0011	67	C5H2O3-
111.0088	417	C5H3O3-
123.0088	225	C6H3O3-
124.0166	344	C6H4O3-
125.0244	999	C6H5O3-
127.0037	184	C5H3O4-
136.988	259	C6HO4-
139.0037	454	C6H3O4-
140.0115	650	C6H4O4-
154.9987	32	C6H3O5-
169.0142	50	C7H5O5-
