Mass spectrum: Indole-3-butyric acid; LC-ESI-QFT; MS2; CE: 75; R=17500; [M-H]-
Name: Indole-3-butyric acid
Name: 4-(1H-indol-3-yl)butanoic acid
Formula: C12H13NO2
Exact mass: 203.0946
SMILES: OC(=O)CCCC1=CNC2=C1C=CC=C2
InChI: InChI=1S/C12H13NO2/c14-12(15)7-3-4-9-8-13-11-6-2-1-5-10(9)11/h1-2,5-6,8,13H,3-4,7H2,(H,14,15)
Instrument: Q Exactive Orbitrap (Thermo Scientific)
Instrument type: LC-ESI-QFT
Ms type: MS2
Ion mode: NEGATIVE
Ionization: ESI
Fragmentation mode: HCD
Collision energy: 75
Resolution: 17500
Column name: Acquity BEH C18 1.7um, 2.1x150mm (Waters)
Retention time: 15.736 min
Base peak: 284.0451
Precursor m/z: 202.0874
Precursor type: [M-H]-
Precursor intensity: 3171120.027344
m/z	relative intensity	assigned
55.0189	29	C3H3O-
65.0397	15	C5H5-
67.0189	15	C4H3O-
68.9982	2	C3HO2-
81.0346	9	C5H5O-
83.0503	15	C5H7O-
92.0506	999	C6H6N-
108.0216	5	C6H4O2-
109.0295	123	C6H5O2-
116.0507	3	C8H6N-
131.0375	9	C8H5NO-
136.0401	2	C7H6NO2-
142.0664	3	C10H8N-
144.0454	10	C9H6NO-
158.0612	9	C10H8NO-
