Mass spectrum: Theobromine; LC-ESI-QFT; MS2; CE: 90; R=17500; [M-H]-
Name: Theobromine
Name: 3,7-dimethylpurine-2,6-dione
Formula: C7H8N4O2
Exact mass: 180.0647
SMILES: CN1C=NC2=C1C(=O)NC(=O)N2C
InChI: InChI=1S/C7H8N4O2/c1-10-3-8-5-4(10)6(12)9-7(13)11(5)2/h3H,1-2H3,(H,9,12,13)
Instrument: Q Exactive Orbitrap (Thermo Scientific)
Instrument type: LC-ESI-QFT
Ms type: MS2
Ion mode: NEGATIVE
Ionization: ESI
Fragmentation mode: HCD
Collision energy: 90
Resolution: 17500
Column name: Acquity BEH C18 1.7um, 2.1x150mm (Waters)
Retention time: 10.184 min
Base peak: 162.0309
Precursor m/z: 179.0574
Precursor type: [M-H]-
Precursor intensity: 3749456.299561
m/z	relative intensity	assigned
65.0146	15	C3HN2-
65.9986	774	C3NO-
66.0098	124	C2N3-
67.0176	14	C2HN3-
67.0302	156	C3H3N2-
68.0142	12	C3H2NO-
69.0095	109	C2HN2O-
79.0176	799	C3HN3-
85.0408	9	C3H5N2O-
92.0254	139	C4H2N3-
94.0411	933	C4H4N3-
107.0125	56	C4HN3O-
109.0282	23	C4H3N3O-
120.0203	72	C5H2N3O-
121.0284	26	C5H3N3O-
122.036	999	C5H4N3O-
123.0075	64	C4HN3O2-
124.0154	21	C4H2N3O2-
135.0075	598	C5HN3O2-
135.0313	664	C5H3N4O-
136.039	87	C5H4N4O-
140.0466	16	C5H6N3O2-
164.0341	826	C6H4N4O2-
179.0577	59	C7H7N4O2-
