Mass spectrum: Daidzein; LC-ESI-QFT; MS2; CE: 45; R=17500; [M-H]-
Name: Daidzein
Formula: C15H10O4
Exact mass: 254.0579
SMILES: OC1=CC=C(C=C1)C1=COC2=C(C=CC(O)=C2)C1=O
InChI: InChI=1S/C15H10O4/c16-10-3-1-9(2-4-10)13-8-19-14-7-11(17)5-6-12(14)15(13)18/h1-8,16-17H
Instrument: Q Exactive Orbitrap (Thermo Scientific)
Instrument type: LC-ESI-QFT
Ms type: MS2
Ion mode: NEGATIVE
Ionization: ESI
Fragmentation mode: HCD
Collision energy: 45
Resolution: 17500
Column name: Acquity BEH C18 1.7um, 2.1x150mm (Waters)
Retention time: 17.857 min
Base peak: 253.0506
Precursor m/z: 253.0506
Precursor type: [M-H]-
Precursor intensity: 45196684.38281
m/z	relative intensity	assigned
63.024	104	C5H3-
65.0032	43	C4HO-
79.019	3	C5H3O-
83.0139	3	C4H3O2-
89.0033	9	C6HO-
101.0396	4	C8H5-
107.0138	71	C6H3O2-
115.0553	2	C9H7-
117.0345	1	C8H5O-
119.0501	15	C8H7O-
121.0295	5	C7H5O2-
135.0089	1	C7H3O3-
139.0554	4	C11H7-
141.071	1	C11H9-
143.0502	86	C10H7O-
145.0294	32	C9H5O2-
148.0165	5	C8H4O3-
151.0036	22	C7H3O4-
152.063	2	C12H8-
153.0709	6	C12H9-
155.0503	3	C11H7O-
157.0657	4	C11H9O-
165.0709	22	C13H9-
167.0501	16	C12H7O-
169.0659	1	C12H9O-
180.058	21	C13H8O-
181.0659	32	C13H9O-
183.0451	8	C12H7O2-
185.0607	26	C12H9O2-
187.0399	6	C11H7O3-
197.0607	5	C13H9O2-
208.053	6	C14H8O2-
209.0608	102	C14H9O2-
211.04	24	C13H7O3-
224.0484	1	C14H8O3-
225.0557	10	C14H9O3-
252.0423	1	C15H8O4-
253.0505	999	C15H9O4-
