Mass spectrum: 3,3`-Sulphonyldianiline; LC-ESI-QFT; MS2; CE: 90; R=17500; [M+H]+
Name: 3,3'-Sulphonyldianiline
Name: 3,3'-Sulfonyldianiline
Name: 3-(3-aminophenyl)sulfonylaniline
Formula: C12H12N2O2S
Exact mass: 248.0619
SMILES: NC1=CC=CC(=C1)S(=O)(=O)C1=CC(N)=CC=C1
InChI: InChI=1S/C12H12N2O2S/c13-9-3-1-5-11(7-9)17(15,16)12-6-2-4-10(14)8-12/h1-8H,13-14H2
Instrument: Q Exactive Orbitrap (Thermo Scientific)
Instrument type: LC-ESI-QFT
Ms type: MS2
Ion mode: POSITIVE
Ionization: ESI
Fragmentation mode: HCD
Collision energy: 90
Resolution: 17500
Column name: Acquity BEH C18 1.7um, 2.1x150mm (Waters)
Retention time: 10.897 min
Base peak: 79.0212
Precursor m/z: 249.0692
Precursor type: [M+H]+
Precursor intensity: 4721087.65625
m/z	relative intensity	assigned
53.0023	8	C3HO+
53.0386	14	C4H5+
53.9975	1	C2NO+
54.0339	2	C3H4N+
55.0178	1	C3H3O+
55.0542	1	C4H7+
56.0495	4	C3H6N+
61.0107	1	C2H5S+
63.0229	1	C5H3+
65.0385	999	C5H5+
66.0464	46	C5H6+
67.0416	2	C4H5N+
67.0542	1	C5H7+
68.0495	18	C4H6N+
78.0337	3	C5H4N+
79.0179	2	C5H3O+
80.0494	345	C5H6N+
83.0492	4	C5H7O+
90.0339	1	C6H4N+
92.0495	447	C6H6N+
93.0573	266	C6H7N+
96.0444	3	C5H6NO+
108.0444	454	C6H6NO+
109.0522	3	C6H7NO+
110.06	104	C6H8NO+
120.0556	2	C8H8O+
124.0214	5	C6H6NS+
124.0759	2	C7H10NO+
128.9867	1	C4H3NO2S+
140.0166	3	C6H6NOS+
