Mass spectrum: Emodin; LC-ESI-QFT; MS2; CE: 15; R=17500; [M-H]-
Name: Emodin
Name: 1,3,8-trihydroxy-6-methylanthracene-9,10-dione
Formula: C15H10O5
Exact mass: 270.0528
SMILES: CC1=CC(O)=C2C(=O)C3=C(O)C=C(O)C=C3C(=O)C2=C1
InChI: InChI=1S/C15H10O5/c1-6-2-8-12(10(17)3-6)15(20)13-9(14(8)19)4-7(16)5-11(13)18/h2-5,16-18H,1H3
Instrument: Q Exactive Orbitrap (Thermo Scientific)
Instrument type: LC-ESI-QFT
Ms type: MS2
Ion mode: NEGATIVE
Ionization: ESI
Fragmentation mode: HCD
Collision energy: 15
Resolution: 17500
Column name: Acquity BEH C18 1.7um, 2.1x150mm (Waters)
Retention time: 19.838 min
Base peak: 269.0455
Precursor m/z: 269.0455
Precursor type: [M-H]-
Precursor intensity: 68870988.46777
m/z	relative intensity	assigned
254.0217	1	C14H6O5-
269.0454	999	C15H9O5-
