Mass spectrum: Amitriptyline; LC-ESI-QFT; MS2; CE: 60; R=17500; [M+H]+
Name: Amitriptyline
Name: N,N-dimethyl-3-(2-tricyclo[9.4.0.03,8]pentadeca-1(15),3,5,7,11,13-hexaenylidene)propan-1-amine
Formula: C20H23N
Exact mass: 277.1830
SMILES: CN(C)CCC=C1C2=CC=CC=C2CCC2=C1C=CC=C2
InChI: InChI=1S/C20H23N/c1-21(2)15-7-12-20-18-10-5-3-8-16(18)13-14-17-9-4-6-11-19(17)20/h3-6,8-12H,7,13-15H2,1-2H3
Instrument: Q Exactive Orbitrap (Thermo Scientific)
Instrument type: LC-ESI-QFT
Ms type: MS2
Ion mode: POSITIVE
Ionization: ESI
Fragmentation mode: HCD
Collision energy: 60
Resolution: 17500
Column name: Acquity BEH C18 1.7um, 2.1x150mm (Waters)
Retention time: 15.622 min
Base peak: 79.0211
Precursor m/z: 278.1903
Precursor type: [M+H]+
Precursor intensity: 100077755.3438
m/z	relative intensity	assigned
53.0386	2	C4H5+
55.0543	5	C4H7+
58.0651	67	C3H8N+
65.0386	12	C5H5+
67.0541	2	C5H7+
69.07	1	C5H9+
70.0651	66	C4H8N+
71.073	1	C4H9N+
72.0807	22	C4H10N+
77.0385	3	C6H5+
79.0542	29	C6H7+
84.0808	217	C5H10N+
85.0886	20	C5H11N+
89.0383	1	C7H5+
91.0542	999	C7H7+
103.0542	33	C8H7+
105.0699	489	C8H9+
115.0542	111	C9H7+
116.0621	3	C9H8+
117.0698	830	C9H9+
119.0856	7	C9H11+
128.0619	24	C10H8+
129.0698	160	C10H9+
131.0855	123	C10H11+
141.0698	193	C11H9+
142.0777	5	C11H10+
143.0855	46	C11H11+
152.062	2	C12H8+
153.0698	22	C12H9+
154.0776	19	C12H10+
155.0855	133	C12H11+
165.0699	12	C13H9+
166.0775	2	C13H10+
167.0855	5	C13H11+
169.1011	81	C13H13+
178.0777	417	C14H10+
179.0855	128	C14H11+
189.0697	5	C15H9+
190.0778	35	C15H10+
191.0855	794	C15H11+
192.0933	43	C15H12+
193.1011	110	C15H13+
202.0774	10	C16H10+
203.0855	141	C16H11+
204.0933	183	C16H12+
205.1011	204	C16H13+
207.1167	5	C16H15+
215.0857	3	C17H11+
216.0933	9	C17H12+
217.1012	47	C17H13+
218.1089	183	C17H14+
219.1168	439	C17H15+
231.1169	10	C18H15+
232.1251	4	C18H16+
233.1325	35	C18H17+
250.159	104	C18H20N+
278.1904	5	C20H24N+
