Mass spectrum: tert-Butyl 4-hydroxybenzoate; LC-ESI-QFT; MS2; CE: 30; R=17500; [M-H]-
Name: tert-Butyl 4-hydroxybenzoate
Formula: C11H14O3
Exact mass: 194.0943
SMILES: CC(C)(C)OC(=O)C1=CC=C(O)C=C1
InChI: InChI=1S/C11H14O3/c1-11(2,3)14-10(13)8-4-6-9(12)7-5-8/h4-7,12H,1-3H3
Instrument: Q Exactive Orbitrap (Thermo Scientific)
Instrument type: LC-ESI-QFT
Ms type: MS2
Ion mode: NEGATIVE
Ionization: ESI
Fragmentation mode: HCD
Collision energy: 30
Resolution: 17500
Column name: Acquity BEH C18 1.7um, 2.1x150mm (Waters)
Retention time: 17.576 min
Base peak: 193.0869
Precursor m/z: 193.087
Precursor type: [M-H]-
Precursor intensity: 58959442.39258
m/z	relative intensity	assigned
71.0502	1	C4H7O-
82.0059	1	C4H2O2-
91.0189	1	C6H3O-
92.0266	35	C6H4O-
93.0346	110	C6H5O-
95.0139	20	C5H3O2-
108.0217	16	C6H4O2-
119.0138	3	C7H3O2-
120.0217	1	C7H4O2-
121.0294	2	C7H5O2-
123.0088	2	C6H3O3-
136.0166	285	C7H4O3-
137.0244	276	C7H5O3-
149.097	2	C10H13O-
193.087	999	C11H13O3-
