Mass spectrum: Theobromine; LC-ESI-QFT; MS2; CE: 30; R=17500; [M+H]+
Name: Theobromine
Name: 3,7-dimethylpurine-2,6-dione
Formula: C7H8N4O2
Exact mass: 180.0647
SMILES: CN1C=NC2=C1C(=O)NC(=O)N2C
InChI: InChI=1S/C7H8N4O2/c1-10-3-8-5-4(10)6(12)9-7(13)11(5)2/h3H,1-2H3,(H,9,12,13)
Instrument: Q Exactive Orbitrap (Thermo Scientific)
Instrument type: LC-ESI-QFT
Ms type: MS2
Ion mode: POSITIVE
Ionization: ESI
Fragmentation mode: HCD
Collision energy: 30
Resolution: 17500
Column name: Acquity BEH C18 1.7um, 2.1x150mm (Waters)
Retention time: 10.147 min
Base peak: 79.0211
Precursor m/z: 181.072
Precursor type: [M+H]+
Precursor intensity: 1408077.125
m/z	relative intensity	assigned
69.0447	1	C3H5N2+
96.0554	3	C4H6N3+
124.0506	126	C5H6N3O+
137.0823	6	C6H9N4+
142.0611	7	C5H8N3O2+
149.0233	42	C6H3N3O2+
163.039	22	C7H5N3O2+
181.072	999	C7H9N4O2+
