Mass spectrum: Daidzein; LC-ESI-QFT; MS2; CE: 90; R=17500; [M+H]+
Name: Daidzein
Formula: C15H10O4
Exact mass: 254.0579
SMILES: OC1=CC=C(C=C1)C1=COC2=C(C=CC(O)=C2)C1=O
InChI: InChI=1S/C15H10O4/c16-10-3-1-9(2-4-10)13-8-19-14-7-11(17)5-6-12(14)15(13)18/h1-8,16-17H
Instrument: Q Exactive Orbitrap (Thermo Scientific)
Instrument type: LC-ESI-QFT
Ms type: MS2
Ion mode: POSITIVE
Ionization: ESI
Fragmentation mode: HCD
Collision energy: 90
Resolution: 17500
Column name: Acquity BEH C18 1.7um, 2.1x150mm (Waters)
Retention time: 15.105 min
Base peak: 79.0211
Precursor m/z: 255.0652
Precursor type: [M+H]+
Precursor intensity: 9131380.875
m/z	relative intensity	assigned
53.0022	13	C3HO+
53.0386	40	C4H5+
55.0178	79	C3H3O+
63.0228	10	C5H3+
65.0385	492	C5H5+
68.997	82	C3HO2+
71.0127	2	C3H3O2+
77.0384	7	C6H5+
78.0464	38	C6H6+
79.0178	2	C5H3O+
79.0542	4	C6H7+
81.0335	257	C5H5O+
82.0413	8	C5H6O+
89.0385	47	C7H5+
90.0464	4	C7H6+
91.0542	999	C7H7+
92.0256	6	C6H4O+
93.0334	5	C6H5O+
94.0413	2	C6H6O+
95.0128	3	C5H3O2+
95.0491	28	C6H7O+
96.0205	9	C5H4O2+
103.0542	27	C8H7+
105.0335	63	C7H5O+
106.0412	18	C7H6O+
107.0491	11	C7H7O+
108.0555	71	C7H8O+
109.0284	14	C6H5O2+
110.0361	3	C6H6O2+
110.0712	3	C7H10O+
111.0441	14	C6H7O2+
115.0542	65	C9H7+
116.062	6	C9H8+
117.0334	2	C8H5O+
117.0699	6	C9H9+
118.0412	23	C8H6O+
119.0491	67	C8H7O+
121.0284	47	C7H5O2+
127.039	20	C6H7O3+
127.0541	17	C10H7+
128.062	319	C10H8+
129.0698	70	C10H9+
131.0491	81	C9H7O+
131.0856	5	C10H11+
133.0283	10	C8H5O2+
134.0361	34	C8H6O2+
135.0439	4	C8H7O2+
137.0233	373	C7H5O3+
138.0311	17	C7H6O3+
139.0543	5	C11H7+
141.0698	54	C11H9+
142.0776	6	C11H10+
143.0493	2	C10H7O+
143.0854	24	C11H11+
144.0569	13	C10H8O+
145.0284	21	C9H5O2+
145.0647	39	C10H9O+
147.0441	24	C9H7O2+
149.0234	12	C8H5O3+
152.062	600	C12H8+
153.0698	284	C12H9+
154.0777	9	C12H10+
155.0492	16	C11H7O+
156.0569	10	C11H8O+
157.0648	50	C11H9O+
159.0442	3	C10H7O2+
163.0541	7	C13H7+
165.0697	17	C13H9+
168.0569	11	C12H8O+
169.0647	95	C12H9O+
170.0726	20	C12H10O+
171.0441	5	C11H7O2+
171.0804	37	C12H11O+
180.0571	4	C13H8O+
181.0647	348	C13H9O+
182.0726	32	C13H10O+
183.0808	1	C13H11O+
184.0518	69	C12H8O2+
185.0595	5	C12H9O2+
187.0391	5	C11H7O3+
193.0495	6	C10H9O4+
197.0597	87	C13H9O2+
198.0677	35	C13H10O2+
199.0753	67	C13H11O2+
208.0517	4	C14H8O2+
209.0595	12	C14H9O2+
210.0676	10	C14H10O2+
212.0469	6	C13H8O3+
219.044	2	C15H7O2+
225.0548	7	C14H9O3+
226.0627	7	C14H10O3+
227.0704	12	C14H11O3+
237.0545	15	C15H9O3+
255.0659	2	C15H11O4+
