Mass spectrum: Melatonin; LC-ESI-QFT; MS2; CE: 30; R=17500; [M+H]+
Name: Melatonin
Formula: C13H16N2O2
Exact mass: 232.1212
SMILES: COC1=CC2=C(NC=C2CCNC(C)=O)C=C1
InChI: InChI=1S/C13H16N2O2/c1-9(16)14-6-5-10-8-15-13-4-3-11(17-2)7-12(10)13/h3-4,7-8,15H,5-6H2,1-2H3,(H,14,16)
Instrument: Q Exactive Orbitrap (Thermo Scientific)
Instrument type: LC-ESI-QFT
Ms type: MS2
Ion mode: POSITIVE
Ionization: ESI
Fragmentation mode: HCD
Collision energy: 30
Resolution: 17500
Column name: Acquity BEH C18 1.7um, 2.1x150mm (Waters)
Retention time: 13.555 min
Base peak: 79.0211
Precursor m/z: 233.1285
Precursor type: [M+H]+
Precursor intensity: 8066863
m/z	relative intensity	assigned
72.0443	1	C3H6NO+
86.06	5	C4H8NO+
143.0729	2	C10H9N+
148.0757	1	C9H10NO+
159.0678	9	C10H9NO+
162.0914	2	C10H12NO+
174.0913	999	C11H12NO+
188.1071	3	C12H14NO+
191.1178	2	C11H15N2O+
198.0914	8	C13H12NO+
204.1019	3	C12H14NO2+
215.1176	1	C13H15N2O+
216.1019	101	C13H14NO2+
233.1283	12	C13H17N2O2+
