Mass spectrum: 2-Phenylphenol; LC-ESI-QFT; MS2; CE: 75; R=17500; [M-H]-
Name: 2-Phenylphenol
Formula: C12H10O
Exact mass: 170.0732
SMILES: OC1=C(C=CC=C1)C1=CC=CC=C1
InChI: InChI=1S/C12H10O/c13-12-9-5-4-8-11(12)10-6-2-1-3-7-10/h1-9,13H
Instrument: Q Exactive Orbitrap (Thermo Scientific)
Instrument type: LC-ESI-QFT
Ms type: MS2
Ion mode: NEGATIVE
Ionization: ESI
Fragmentation mode: HCD
Collision energy: 75
Resolution: 17500
Column name: Acquity BEH C18 1.7um, 2.1x150mm (Waters)
Retention time: 17.832 min
Base peak: 213.0557
Precursor m/z: 169.0659
Precursor type: [M-H]-
Precursor intensity: 415224.3769531
m/z	relative intensity	assigned
65.0396	29	C5H5-
93.0346	999	C6H5O-
115.0553	59	C9H7-
141.0709	71	C11H9-
169.0658	189	C12H9O-
