Mass spectrum: (E)-Hexadec-9-enoic acid; LC-ESI-QFT; MS2; CE: 75; R=17500; [M-H]-
Name: (E)-Hexadec-9-enoic acid
Name: 9-Hexadecenoic acid
Formula: C16H30O2
Exact mass: 254.2246
SMILES: CCCCCC\C=C\CCCCCCCC(O)=O
InChI: InChI=1S/C16H30O2/c1-2-3-4-5-6-7-8-9-10-11-12-13-14-15-16(17)18/h7-8H,2-6,9-15H2,1H3,(H,17,18)/b8-7+
Instrument: Q Exactive Orbitrap (Thermo Scientific)
Instrument type: LC-ESI-QFT
Ms type: MS2
Ion mode: NEGATIVE
Ionization: ESI
Fragmentation mode: HCD
Collision energy: 75
Resolution: 17500
Column name: Acquity BEH C18 1.7um, 2.1x150mm (Waters)
Retention time: 21.396 min
Base peak: 112.9856
Precursor m/z: 253.2173
Precursor type: [M-H]-
Precursor intensity: 2087350.440918
m/z	relative intensity	assigned
63.0241	999	C5H3-
65.0034	412	C4HO-
101.0399	224	C8H5-
