Mass spectrum: 4-Methylumbelliferone; LC-ESI-QFT; MS2; CE: 60; R=17500; [M-H]-
Name: 4-Methylumbelliferone
Name: 7-hydroxy-4-methylchromen-2-one
Formula: C10H8O3
Exact mass: 176.0473
SMILES: CC1=CC(=O)OC2=C1C=CC(O)=C2
InChI: InChI=1S/C10H8O3/c1-6-4-10(12)13-9-5-7(11)2-3-8(6)9/h2-5,11H,1H3
Instrument: Q Exactive Orbitrap (Thermo Scientific)
Instrument type: LC-ESI-QFT
Ms type: MS2
Ion mode: NEGATIVE
Ionization: ESI
Fragmentation mode: HCD
Collision energy: 60
Resolution: 17500
Column name: Acquity BEH C18 1.7um, 2.1x150mm (Waters)
Retention time: 14.056 min
Base peak: 175.04
Precursor m/z: 175.0401
Precursor type: [M-H]-
Precursor intensity: 54796096.75781
m/z	relative intensity	assigned
65.0033	18	C4HO-
65.0395	1	C5H5-
77.0397	4	C6H5-
89.0397	53	C7H5-
91.019	5	C6H3O-
91.0554	3	C7H7-
93.0346	5	C6H5O-
95.0503	30	C6H7O-
102.0475	5	C8H6-
103.0553	16	C8H7-
105.0346	15	C7H5O-
107.0503	12	C7H7O-
109.0295	12	C6H5O2-
119.0502	172	C8H7O-
121.0296	1	C7H5O2-
123.0452	104	C7H7O2-
130.0425	43	C9H6O-
131.0503	317	C9H7O-
132.0216	6	C8H4O2-
133.0295	469	C8H5O2-
135.0086	6	C7H3O3-
145.0294	1	C9H5O2-
146.0376	2	C9H6O2-
147.0452	294	C9H7O2-
160.0164	1	C9H4O3-
174.0322	1	C10H6O3-
175.04	999	C10H7O3-
