Mass spectrum: 4-Octylphenol; LC-ESI-QFT; MS2; CE: 75; R=17500; [M-H]-
Name: 4-Octylphenol
Formula: C14H22O
Exact mass: 206.1671
SMILES: CCCCCCCCC1=CC=C(O)C=C1
InChI: InChI=1S/C14H22O/c1-2-3-4-5-6-7-8-13-9-11-14(15)12-10-13/h9-12,15H,2-8H2,1H3
Instrument: Q Exactive Orbitrap (Thermo Scientific)
Instrument type: LC-ESI-QFT
Ms type: MS2
Ion mode: NEGATIVE
Ionization: ESI
Fragmentation mode: HCD
Collision energy: 75
Resolution: 17500
Column name: Acquity BEH C18 1.7um, 2.1x150mm (Waters)
Retention time: 19.674 min
Base peak: 205.1597
Precursor m/z: 205.1598
Precursor type: [M-H]-
Precursor intensity: 17671186.40967
m/z	relative intensity	assigned
133.0658	12	C9H9O-
149.0971	24	C10H13O-
173.0971	8	C12H13O-
175.1128	5	C12H15O-
189.1286	549	C13H17O-
205.1598	999	C14H21O-
