Mass spectrum: Dicyclohexyl phthalate; LC-ESI-QFT; MS2; CE: 30; R=17500; [M-H]-
Name: Dicyclohexyl phthalate
Name: dicyclohexyl benzene-1,2-dicarboxylate
Formula: C20H26O4
Exact mass: 330.1831
SMILES: O=C(OC1CCCCC1)C1=C(C=CC=C1)C(=O)OC1CCCCC1
InChI: InChI=1S/C20H26O4/c21-19(23-15-9-3-1-4-10-15)17-13-7-8-14-18(17)20(22)24-16-11-5-2-6-12-16/h7-8,13-16H,1-6,9-12H2
Instrument: Q Exactive Orbitrap (Thermo Scientific)
Instrument type: LC-ESI-QFT
Ms type: MS2
Ion mode: NEGATIVE
Ionization: ESI
Fragmentation mode: HCD
Collision energy: 30
Resolution: 17500
Column name: Acquity BEH C18 1.7um, 2.1x150mm (Waters)
Retention time: 15.542 min
Base peak: 405.1916
Precursor m/z: 329.1758
Precursor type: [M-H]-
Precursor intensity: 5807498.131836
m/z	relative intensity	assigned
57.0345	33	C3H5O-
59.0138	1	C2H3O2-
71.0139	1	C3H3O2-
81.0347	2	C5H5O-
83.0503	1	C5H7O-
95.0503	4	C6H7O-
96.0217	1	C5H4O2-
97.0659	3	C6H9O-
99.0453	3	C5H7O2-
107.0502	6	C7H7O-
107.0867	1	C8H11-
109.0659	115	C7H9O-
111.0453	2	C6H7O2-
121.0658	4	C8H9O-
121.1024	1	C9H13-
122.0374	13	C7H6O2-
123.0452	52	C7H7O2-
123.0816	193	C8H11O-
125.0608	61	C7H9O2-
135.0451	14	C8H7O2-
135.0817	36	C9H11O-
136.053	73	C8H8O2-
137.0608	911	C8H9O2-
138.0323	7	C7H6O3-
147.0815	5	C10H11O-
149.0607	71	C9H9O2-
150.0322	4	C8H6O3-
151.0401	25	C8H7O3-
151.0764	1	C9H11O2-
161.0972	16	C11H13O-
162.0689	2	C10H10O2-
163.0765	13	C10H11O2-
165.0921	6	C10H13O2-
167.0352	5	C8H7O4-
168.0428	14	C8H8O4-
175.0766	3	C11H11O2-
175.1128	12	C12H15O-
176.0838	5	C11H12O2-
177.0923	3	C11H13O2-
179.1078	20	C11H15O2-
187.0761	1	C12H11O2-
191.1079	5	C12H15O2-
203.1078	11	C13H15O2-
205.1234	7	C13H17O2-
227.1443	1	C16H19O-
229.1252	1	C15H17O2-
233.1182	3	C14H17O3-
243.1388	1	C16H19O2-
257.1549	56	C17H21O2-
257.1897	6	C18H25O-
259.1339	56	C16H19O3-
269.1555	1	C18H21O2-
271.1342	42	C17H19O3-
283.1705	3	C19H23O2-
285.1497	2	C18H21O3-
287.1661	1	C18H23O3-
296.1417	1	C19H20O3-
301.181	50	C19H25O3-
311.1654	398	C20H23O3-
329.1758	999	C20H25O4-
