Mass spectrum: Ethyl 2-methoxybenzoate; LC-ESI-QFT; MS2; CE: 30; R=17500; [M-H]-
Name: Ethyl 2-methoxybenzoate
Formula: C10H12O3
Exact mass: 180.0786
SMILES: CCOC(=O)C1=C(OC)C=CC=C1
InChI: InChI=1S/C10H12O3/c1-3-13-10(11)8-6-4-5-7-9(8)12-2/h4-7H,3H2,1-2H3
Instrument: Q Exactive Orbitrap (Thermo Scientific)
Instrument type: LC-ESI-QFT
Ms type: MS2
Ion mode: NEGATIVE
Ionization: ESI
Fragmentation mode: HCD
Collision energy: 30
Resolution: 17500
Column name: Acquity BEH C18 1.7um, 2.1x150mm (Waters)
Retention time: 16.579 min
Base peak: 179.0713
Precursor m/z: 179.0714
Precursor type: [M-H]-
Precursor intensity: 41325881.51562
m/z	relative intensity	assigned
82.0061	1	C4H2O2-
91.019	2	C6H3O-
92.0266	25	C6H4O-
93.0346	124	C6H5O-
95.0139	25	C5H3O2-
108.0217	22	C6H4O2-
119.0138	5	C7H3O2-
121.0296	3	C7H5O2-
123.0087	2	C6H3O3-
135.0815	1	C9H11O-
136.0166	320	C7H4O3-
137.0244	286	C7H5O3-
151.0765	1	C9H11O2-
179.0713	999	C10H11O3-
