Mass spectrum: N-Hydroxybenzamide; LC-ESI-QFT; MS2; CE: 45; R=17500; [M-H]-
Name: N-Hydroxybenzamide
Formula: C7H7NO2
Exact mass: 137.0477
SMILES: ONC(=O)C1=CC=CC=C1
InChI: InChI=1S/C7H7NO2/c9-7(8-10)6-4-2-1-3-5-6/h1-5,10H,(H,8,9)
Instrument: Q Exactive Orbitrap (Thermo Scientific)
Instrument type: LC-ESI-QFT
Ms type: MS2
Ion mode: NEGATIVE
Ionization: ESI
Fragmentation mode: HCD
Collision energy: 45
Resolution: 17500
Column name: Acquity BEH C18 1.7um, 2.1x150mm (Waters)
Retention time: 12.151 min
Base peak: 116.9285
Precursor m/z: 136.0404
Precursor type: [M-H]-
Precursor intensity: 276226.8525391
m/z	relative intensity	assigned
92.0506	999	C6H6N-
136.0406	26	C7H6NO2-
