Mass spectrum: 3-Phenoxybenzoic acid; LC-ESI-QFT; MS2; CE: 30; R=17500; [M-H]-
Name: 3-Phenoxybenzoic acid
Formula: C13H10O3
Exact mass: 214.0630
SMILES: OC(=O)C1=CC(OC2=CC=CC=C2)=CC=C1
InChI: InChI=1S/C13H10O3/c14-13(15)10-5-4-8-12(9-10)16-11-6-2-1-3-7-11/h1-9H,(H,14,15)
Instrument: Q Exactive Orbitrap (Thermo Scientific)
Instrument type: LC-ESI-QFT
Ms type: MS2
Ion mode: NEGATIVE
Ionization: ESI
Fragmentation mode: HCD
Collision energy: 30
Resolution: 17500
Column name: Acquity BEH C18 1.7um, 2.1x150mm (Waters)
Retention time: 17.076 min
Base peak: 213.0557
Precursor m/z: 213.0557
Precursor type: [M-H]-
Precursor intensity: 131438237.2461
m/z	relative intensity	assigned
91.019	31	C6H3O-
93.0346	743	C6H5O-
121.0295	1	C7H5O2-
135.0088	191	C7H3O3-
141.071	1	C11H9-
169.0659	76	C12H9O-
171.0451	2	C11H7O2-
213.0557	999	C13H9O3-
