Mass spectrum: Daidzein; LC-ESI-QFT; MS2; CE: 30; R=17500; [M-H]-
Name: Daidzein
Formula: C15H10O4
Exact mass: 254.0579
SMILES: OC1=CC=C(C=C1)C1=COC2=C(C=CC(O)=C2)C1=O
InChI: InChI=1S/C15H10O4/c16-10-3-1-9(2-4-10)13-8-19-14-7-11(17)5-6-12(14)15(13)18/h1-8,16-17H
Instrument: Q Exactive Orbitrap (Thermo Scientific)
Instrument type: LC-ESI-QFT
Ms type: MS2
Ion mode: NEGATIVE
Ionization: ESI
Fragmentation mode: HCD
Collision energy: 30
Resolution: 17500
Column name: Acquity BEH C18 1.7um, 2.1x150mm (Waters)
Retention time: 17.857 min
Base peak: 253.0506
Precursor m/z: 253.0506
Precursor type: [M-H]-
Precursor intensity: 44456192.68848
m/z	relative intensity	assigned
63.0239	3	C5H3-
65.0034	1	C4HO-
107.0138	4	C6H3O2-
143.0501	2	C10H7O-
145.0292	1	C9H5O2-
151.0036	1	C7H3O4-
165.0709	1	C13H9-
167.05	1	C12H7O-
180.0579	1	C13H8O-
181.0659	1	C13H9O-
185.0608	2	C12H9O2-
209.0608	12	C14H9O2-
211.0397	1	C13H7O3-
252.0425	1	C15H8O4-
253.0505	999	C15H9O4-
