Mass spectrum: (4-Methylphenoxy) acetic acid ethyl ester; LC-ESI-QFT; MS2; CE: 45; R=17500; [M-H]-
Name: (4-Methylphenoxy) acetic acid ethyl ester
Name: Ethyl (4-methylphenoxy)acetate
Formula: C11H14O3
Exact mass: 194.0943
SMILES: CCOC(=O)COC1=CC=C(C)C=C1
InChI: InChI=1S/C11H14O3/c1-3-13-11(12)8-14-10-6-4-9(2)5-7-10/h4-7H,3,8H2,1-2H3
Instrument: Q Exactive Orbitrap (Thermo Scientific)
Instrument type: LC-ESI-QFT
Ms type: MS2
Ion mode: NEGATIVE
Ionization: ESI
Fragmentation mode: HCD
Collision energy: 45
Resolution: 17500
Column name: Acquity BEH C18 1.7um, 2.1x150mm (Waters)
Retention time: 17.576 min
Base peak: 193.0869
Precursor m/z: 193.087
Precursor type: [M-H]-
Precursor intensity: 62871782.12109
m/z	relative intensity	assigned
67.019	2	C4H3O-
68.9981	8	C3HO2-
69.0347	5	C4H5O-
70.0061	8	C3H2O2-
71.0139	3	C3H3O2-
71.0502	27	C4H7O-
72.9931	2	C2HO3-
73.0659	4	C4H9O-
78.0111	2	C5H2O-
79.019	5	C5H3O-
79.9904	3	C4O2-
80.9983	2	C4HO2-
82.006	26	C4H2O2-
91.019	27	C6H3O-
92.0268	283	C6H4O-
93.0346	940	C6H5O-
95.0138	262	C5H3O2-
97.0296	3	C5H5O2-
106.0061	13	C6H2O2-
106.0424	3	C7H6O-
107.0138	1	C6H3O2-
108.0217	243	C6H4O2-
119.0138	29	C7H3O2-
121.0295	22	C7H5O2-
123.0087	30	C6H3O3-
136.0166	999	C7H4O3-
137.0244	777	C7H5O3-
149.0974	4	C10H13O-
193.087	704	C11H13O3-
