Mass spectrum: Ethyl 2-methoxybenzoate; LC-ESI-QFT; MS2; CE: 45; R=17500; [M-H]-
Name: Ethyl 2-methoxybenzoate
Formula: C10H12O3
Exact mass: 180.0786
SMILES: CCOC(=O)C1=C(OC)C=CC=C1
InChI: InChI=1S/C10H12O3/c1-3-13-10(11)8-6-4-5-7-9(8)12-2/h4-7H,3H2,1-2H3
Instrument: Q Exactive Orbitrap (Thermo Scientific)
Instrument type: LC-ESI-QFT
Ms type: MS2
Ion mode: NEGATIVE
Ionization: ESI
Fragmentation mode: HCD
Collision energy: 45
Resolution: 17500
Column name: Acquity BEH C18 1.7um, 2.1x150mm (Waters)
Retention time: 16.579 min
Base peak: 179.0713
Precursor m/z: 179.0714
Precursor type: [M-H]-
Precursor intensity: 38954739.98926
m/z	relative intensity	assigned
57.0346	22	C3H5O-
59.0502	4	C3H7O-
67.0189	2	C4H3O-
68.9982	6	C3HO2-
69.0347	6	C4H5O-
70.0061	5	C3H2O2-
71.0139	6	C3H3O2-
72.9933	2	C2HO3-
79.0188	4	C5H3O-
79.9904	3	C4O2-
80.9983	1	C4HO2-
82.0061	25	C4H2O2-
91.019	30	C6H3O-
92.0268	198	C6H4O-
93.0346	915	C6H5O-
95.0138	272	C5H3O2-
97.0294	3	C5H5O2-
98.0008	1	C4H2O3-
106.0061	13	C6H2O2-
106.0423	3	C7H6O-
107.0141	2	C6H3O2-
108.0217	253	C6H4O2-
109.0294	1	C6H5O2-
119.0139	31	C7H3O2-
120.0217	1	C7H4O2-
121.0294	20	C7H5O2-
123.0088	34	C6H3O3-
135.0814	3	C9H11O-
136.0166	999	C7H4O3-
137.0244	728	C7H5O3-
151.0764	8	C9H11O2-
179.0713	776	C10H11O3-
