Mass spectrum: Terbutylazine; LC-ESI-QFT; MS2; CE: 60; R=17500; [M+H]+
Name: Terbutylazine
Name: Terbuthylazine
Name: 2-N-tert-butyl-6-chloro-4-N-ethyl-1,3,5-triazine-2,4-diamine
Formula: C9H16ClN5
Exact mass: 229.1094
SMILES: CCNC1=NC(NC(C)(C)C)=NC(Cl)=N1
InChI: InChI=1S/C9H16ClN5/c1-5-11-7-12-6(10)13-8(14-7)15-9(2,3)4/h5H2,1-4H3,(H2,11,12,13,14,15)
Instrument: Q Exactive Orbitrap (Thermo Scientific)
Instrument type: LC-ESI-QFT
Ms type: MS2
Ion mode: POSITIVE
Ionization: ESI
Fragmentation mode: HCD
Collision energy: 60
Resolution: 17500
Column name: Acquity BEH C18 1.7um, 2.1x150mm (Waters)
Retention time: 17.266 min
Base peak: 79.0211
Precursor m/z: 230.1167
Precursor type: [M+H]+
Precursor intensity: 24364579.8125
m/z	relative intensity	assigned
53.0022	3	ClH4N+
61.979	4	CHClN+
68.0243	110	C2H2N3+
79.0057	166	CH4ClN2+
85.076	6	C4H9N2+
104.0009	226	C2H3ClN3+
110.0461	100	C3H4N5+
110.0712	14	C5H8N3+
146.0227	999	C3H5ClN5+
152.0932	3	C6H10N5+
152.1181	1	C8H14N3+
188.0697	212	C6H11ClN5+
230.1166	15	C9H17ClN5+
