Mass spectrum: 4-Methoxy-2-methyl-N-phenylaniline; LC-ESI-QFT; MS2; CE: 90; R=17500; [M+H]+
Name: 4-Methoxy-2-methyl-N-phenylaniline
Formula: C14H15NO
Exact mass: 213.1154
SMILES: COC1=CC=C(NC2=CC=CC=C2)C(C)=C1
InChI: InChI=1S/C14H15NO/c1-11-10-13(16-2)8-9-14(11)15-12-6-4-3-5-7-12/h3-10,15H,1-2H3
Instrument: Q Exactive Orbitrap (Thermo Scientific)
Instrument type: LC-ESI-QFT
Ms type: MS2
Ion mode: POSITIVE
Ionization: ESI
Fragmentation mode: HCD
Collision energy: 90
Resolution: 17500
Column name: Acquity BEH C18 1.7um, 2.1x150mm (Waters)
Retention time: 18.354 min
Base peak: 79.0211
Precursor m/z: 214.1226
Precursor type: [M+H]+
Precursor intensity: 31077514.8125
m/z	relative intensity	assigned
53.0386	4	C4H5+
65.0386	28	C5H5+
66.0464	5	C5H6+
67.0541	3	C5H7+
77.0385	2	C6H5+
78.0464	2	C6H6+
79.0542	10	C6H7+
81.0698	1	C6H9+
91.0542	16	C7H7+
92.0495	17	C6H6N+
92.062	6	C7H8+
93.0573	124	C6H7N+
94.0651	118	C6H8N+
95.0491	14	C6H7O+
106.0651	8	C7H8N+
107.0491	7	C7H7O+
109.0649	2	C7H9O+
121.0524	16	C7H7NO+
121.0649	5	C8H9O+
122.06	999	C7H8NO+
129.0699	6	C10H9+
136.0757	24	C8H10NO+
137.0835	98	C8H11NO+
153.0698	1	C12H9+
156.0812	9	C11H10N+
165.0698	2	C13H9+
166.0651	1	C12H8N+
167.0729	9	C12H9N+
168.0811	2	C12H10N+
169.0883	1	C12H11N+
170.0965	4	C12H12N+
180.0807	2	C13H10N+
182.0964	10	C13H12N+
183.0679	1	C12H9NO+
183.1044	2	C13H13N+
184.0758	22	C12H10NO+
198.0914	2	C13H12NO+
