Mass spectrum: 1,10-Phenanthroline; LC-ESI-QFT; MS2; CE: 75; R=17500; [M+H]+
Name: 1,10-Phenanthroline
Formula: C12H8N2
Exact mass: 180.0687
SMILES: C1=CC2=C(N=C1)C1=C(C=CC=N1)C=C2
InChI: InChI=1S/C12H8N2/c1-3-9-5-6-10-4-2-8-14-12(10)11(9)13-7-1/h1-8H
Instrument: Q Exactive Orbitrap (Thermo Scientific)
Instrument type: LC-ESI-QFT
Ms type: MS2
Ion mode: POSITIVE
Ionization: ESI
Fragmentation mode: HCD
Collision energy: 75
Resolution: 17500
Column name: Acquity BEH C18 1.7um, 2.1x150mm (Waters)
Retention time: 9.890 min
Base peak: 79.0211
Precursor m/z: 181.076
Precursor type: [M+H]+
Precursor intensity: 11846389.875
m/z	relative intensity	assigned
65.0385	1	C5H5+
127.0542	3	C10H7+
128.0495	1	C9H6N+
153.0577	1	C11H7N+
154.065	78	C11H8N+
155.0603	7	C10H7N2+
179.0606	14	C12H7N2+
180.0684	3	C12H8N2+
181.0758	999	C12H9N2+
