Mass spectrum: cis-1,2,3,6-Tetrahydrophthalimide; LC-ESI-QFT; MS2; CE: 45; R=17500; [M+H]+
Name: cis-1,2,3,6-Tetrahydrophthalimide
Name: (3aR,7aS)-3a,4,7,7a-tetrahydroisoindole-1,3-dione
Formula: C8H9NO2
Exact mass: 151.0633
SMILES: O=C1NC(=O)[C@@H]2CC=CC[C@H]12
InChI: InChI=1S/C8H9NO2/c10-7-5-3-1-2-4-6(5)8(11)9-7/h1-2,5-6H,3-4H2,(H,9,10,11)/t5-,6+
Instrument: Q Exactive Orbitrap (Thermo Scientific)
Instrument type: LC-ESI-QFT
Ms type: MS2
Ion mode: POSITIVE
Ionization: ESI
Fragmentation mode: HCD
Collision energy: 45
Resolution: 17500
Column name: Acquity BEH C18 1.7um, 2.1x150mm (Waters)
Retention time: 8.041 min
Base peak: 79.0211
Precursor m/z: 152.0706
Precursor type: [M+H]+
Precursor intensity: 4097576.875
m/z	relative intensity	assigned
65.0385	9	C5H5+
67.0541	1	C5H7+
82.0651	7	C5H8N+
92.0495	18	C6H6N+
93.0336	9	C6H5O+
109.0522	1	C6H7NO+
110.0601	999	C6H8NO+
111.044	30	C6H7O2+
134.0601	22	C8H8NO+
152.0706	469	C8H10NO2+
