Mass spectrum: cis-1,2,3,6-Tetrahydrophthalimide; LC-ESI-QFT; MS2; CE: 75; R=17500; [M+H]+
Name: cis-1,2,3,6-Tetrahydrophthalimide
Name: (3aR,7aS)-3a,4,7,7a-tetrahydroisoindole-1,3-dione
Formula: C8H9NO2
Exact mass: 151.0633
SMILES: O=C1NC(=O)[C@@H]2CC=CC[C@H]12
InChI: InChI=1S/C8H9NO2/c10-7-5-3-1-2-4-6(5)8(11)9-7/h1-2,5-6H,3-4H2,(H,9,10,11)/t5-,6+
Instrument: Q Exactive Orbitrap (Thermo Scientific)
Instrument type: LC-ESI-QFT
Ms type: MS2
Ion mode: POSITIVE
Ionization: ESI
Fragmentation mode: HCD
Collision energy: 75
Resolution: 17500
Column name: Acquity BEH C18 1.7um, 2.1x150mm (Waters)
Retention time: 8.041 min
Base peak: 79.0211
Precursor m/z: 152.0706
Precursor type: [M+H]+
Precursor intensity: 6309369.359375
m/z	relative intensity	assigned
55.0179	1	C3H3O+
55.0543	2	C4H7+
65.0386	295	C5H5+
67.0416	6	C4H5N+
67.0542	11	C5H7+
68.0495	1	C4H6N+
69.0333	1	C4H5O+
80.0494	7	C5H6N+
81.0574	3	C5H7N+
82.0652	69	C5H8N+
83.0491	3	C5H7O+
92.0495	177	C6H6N+
93.0336	113	C6H5O+
93.0573	16	C6H7N+
107.0489	1	C7H7O+
109.0523	20	C6H7NO+
110.0601	999	C6H8NO+
111.044	307	C6H7O2+
125.0598	4	C7H9O2+
134.06	15	C8H8NO+
152.0707	24	C8H10NO2+
