Mass spectrum: Veratraldehyde; LC-ESI-QFT; MS2; CE: 30; R=17500; [M-H]-
Name: Veratraldehyde
Name: 3,4-dimethoxybenzaldehyde
Formula: C9H10O3
Exact mass: 166.0630
SMILES: COC1=CC=C(C=O)C=C1OC
InChI: InChI=1S/C9H10O3/c1-11-8-4-3-7(6-10)5-9(8)12-2/h3-6H,1-2H3
Instrument: Q Exactive Orbitrap (Thermo Scientific)
Instrument type: LC-ESI-QFT
Ms type: MS2
Ion mode: NEGATIVE
Ionization: ESI
Fragmentation mode: HCD
Collision energy: 30
Resolution: 17500
Column name: Acquity BEH C18 1.7um, 2.1x150mm (Waters)
Retention time: 15.443 min
Base peak: 165.0556
Precursor m/z: 165.0557
Precursor type: [M-H]-
Precursor intensity: 28916647.62012
m/z	relative intensity	assigned
82.006	2	C4H2O2-
92.0266	31	C6H4O-
93.0346	241	C6H5O-
95.0139	23	C5H3O2-
107.0504	1	C7H7O-
108.0217	22	C6H4O2-
119.0138	4	C7H3O2-
121.0292	1	C7H5O2-
121.0658	1	C8H9O-
123.0089	2	C6H3O3-
136.0166	312	C7H4O3-
137.0244	618	C7H5O3-
165.0557	999	C9H9O3-
