Mass spectrum: Sulfathiazole; LC-ESI-QFT; MS2; CE: 90; R=17500; [M+H]+
Name: Sulfathiazole
Name: 4-amino-N-(1,3-thiazol-2-yl)benzenesulfonamide
Formula: C9H9N3O2S2
Exact mass: 255.0136
SMILES: NC1=CC=C(C=C1)S(=O)(=O)NC1=NC=CS1
InChI: InChI=1S/C9H9N3O2S2/c10-7-1-3-8(4-2-7)16(13,14)12-9-11-5-6-15-9/h1-6H,10H2,(H,11,12)
Instrument: Q Exactive Orbitrap (Thermo Scientific)
Instrument type: LC-ESI-QFT
Ms type: MS2
Ion mode: POSITIVE
Ionization: ESI
Fragmentation mode: HCD
Collision energy: 90
Resolution: 17500
Column name: Acquity BEH C18 1.7um, 2.1x150mm (Waters)
Retention time: 14.046 min
Base peak: 79.0211
Precursor m/z: 256.0209
Precursor type: [M+H]+
Precursor intensity: 30227163.28125
m/z	relative intensity	assigned
58.995	11	C2H3S+
59.9902	801	CH2NS+
61.0106	999	C2H5S+
79.0212	1	C2H7OS+
86.0058	2	C3H4NS+
119.9937	6	C3H6NS2+
128.977	1	C3HN2O2S+
139.9565	736	H2N3O2S2+
140.9769	3	C4HN2O2S+
155.9337	3	C5O2S2+
171.9829	2	C9H2NOS+
