Mass spectrum: 2,2-Dimethyl-2,3-dihydro-1-benzofuran-7-amine; LC-ESI-QFT; MS2; CE: 90; R=17500; [M+H]+
Name: 2,2-Dimethyl-2,3-dihydro-1-benzofuran-7-amine
Name: 2,2-dimethyl-3H-1-benzofuran-7-amine
Formula: C10H13NO
Exact mass: 163.0997
SMILES: CC1(C)CC2=C(O1)C(N)=CC=C2
InChI: InChI=1S/C10H13NO/c1-10(2)6-7-4-3-5-8(11)9(7)12-10/h3-5H,6,11H2,1-2H3
Instrument: Q Exactive Orbitrap (Thermo Scientific)
Instrument type: LC-ESI-QFT
Ms type: MS2
Ion mode: POSITIVE
Ionization: ESI
Fragmentation mode: HCD
Collision energy: 90
Resolution: 17500
Column name: Acquity BEH C18 1.7um, 2.1x150mm (Waters)
Retention time: 14.381 min
Base peak: 79.0211
Precursor m/z: 164.107
Precursor type: [M+H]+
Precursor intensity: 16780741.125
m/z	relative intensity	assigned
53.0385	4	C4H5+
67.0542	3	C5H7+
77.0384	1	C6H5+
79.0542	33	C6H7+
80.0493	2	C5H6N+
81.0699	1	C6H9+
91.0542	3	C7H7+
93.0574	1	C6H7N+
93.0699	1	C7H9+
94.0652	6	C6H8N+
95.0491	9	C6H7O+
95.0855	4	C7H11+
103.0542	18	C8H7+
105.0699	83	C8H9+
106.0652	149	C7H8N+
107.0729	999	C7H9N+
108.0569	3	C7H8O+
109.0522	3	C6H7NO+
120.0807	2	C8H10N+
121.0884	1	C8H11N+
122.0964	182	C8H12N+
123.0804	4	C8H11O+
130.0652	1	C9H8N+
131.073	1	C9H9N+
