Mass spectrum: Aloe-emodin; LC-ESI-QFT; MS2; CE: 45; R=17500; [M+H]+
Name: Aloe-emodin
Formula: C15H10O5
Exact mass: 270.0528
SMILES: OCC1=CC2=C(C(O)=C1)C(=O)C1=C(C=CC=C1O)C2=O
InChI: InChI=1S/C15H10O5/c16-6-7-4-9-13(11(18)5-7)15(20)12-8(14(9)19)2-1-3-10(12)17/h1-5,16-18H,6H2
Instrument: Q Exactive Orbitrap (Thermo Scientific)
Instrument type: LC-ESI-QFT
Ms type: MS2
Ion mode: POSITIVE
Ionization: ESI
Fragmentation mode: HCD
Collision energy: 45
Resolution: 17500
Column name: Acquity BEH C18 1.7um, 2.1x150mm (Waters)
Retention time: 16.458 min
Base peak: 79.0211
Precursor m/z: 271.0601
Precursor type: [M+H]+
Precursor intensity: 2964780.25
m/z	relative intensity	assigned
67.0177	2	C4H3O+
68.9971	1	C3HO2+
91.0541	1	C7H7+
119.0492	17	C8H7O+
121.0282	4	C7H5O2+
129.0182	1	C5H5O4+
145.0282	5	C9H5O2+
153.0182	47	C7H5O4+
163.0391	4	C9H7O3+
171.0287	8	C7H7O5+
185.0445	1	C8H9O5+
187.0388	1	C11H7O3+
203.07	1	C12H11O3+
225.0546	2	C14H9O3+
229.0492	3	C13H9O4+
243.0657	3	C14H11O4+
247.06	2	C13H11O5+
271.0601	999	C15H11O5+
