Mass spectrum: Benzocaine; LC-ESI-QFT; MS2; CE: 75; R=17500; [M+H]+
Name: Benzocaine
Name: ethyl 4-aminobenzoate
Formula: C9H11NO2
Exact mass: 165.0790
SMILES: CCOC(=O)C1=CC=C(N)C=C1
InChI: InChI=1S/C9H11NO2/c1-2-12-9(11)7-3-5-8(10)6-4-7/h3-6H,2,10H2,1H3
Instrument: Q Exactive Orbitrap (Thermo Scientific)
Instrument type: LC-ESI-QFT
Ms type: MS2
Ion mode: POSITIVE
Ionization: ESI
Fragmentation mode: HCD
Collision energy: 75
Resolution: 17500
Column name: Acquity BEH C18 1.7um, 2.1x150mm (Waters)
Retention time: 19.160 min
Base peak: 79.0211
Precursor m/z: 166.0863
Precursor type: [M+H]+
Precursor intensity: 2035468.28125
m/z	relative intensity	assigned
53.0023	1	C3HO+
53.0386	8	C4H5+
55.0178	8	C3H3O+
58.0288	39	C2H4NO+
65.0386	82	C5H5+
66.0463	8	C5H6+
67.0542	3	C5H7+
79.0542	96	C6H7+
81.0699	305	C6H9+
91.0542	281	C7H7+
93.0335	2	C6H5O+
94.0413	355	C6H6O+
95.049	7	C6H7O+
106.0414	1	C7H6O+
107.0492	190	C7H7O+
108.0572	1	C7H8O+
109.0648	999	C7H9O+
111.044	32	C6H7O2+
