Mass spectrum: Sulfathiazole; LC-ESI-QFT; MS2; CE: 30; R=17500; [M-H]-
Name: Sulfathiazole
Name: 4-amino-N-(1,3-thiazol-2-yl)benzenesulfonamide
Formula: C9H9N3O2S2
Exact mass: 255.0136
SMILES: NC1=CC=C(C=C1)S(=O)(=O)NC1=NC=CS1
InChI: InChI=1S/C9H9N3O2S2/c10-7-1-3-8(4-2-7)16(13,14)12-9-11-5-6-15-9/h1-6H,10H2,(H,11,12)
Instrument: Q Exactive Orbitrap (Thermo Scientific)
Instrument type: LC-ESI-QFT
Ms type: MS2
Ion mode: NEGATIVE
Ionization: ESI
Fragmentation mode: HCD
Collision energy: 30
Resolution: 17500
Column name: Acquity BEH C18 1.7um, 2.1x150mm (Waters)
Retention time: 9.323 min
Base peak: 254.0063
Precursor m/z: 254.0063
Precursor type: [M-H]-
Precursor intensity: 4233299.710693
m/z	relative intensity	assigned
63.9624	23	O2S-
65.0145	9	C3HN2-
70.9836	2	C2HNS-
92.0506	10	C6H6N-
96.9867	7	C3HN2S-
97.9945	525	C3H2N2S-
113.9896	3	C3H2N2OS-
156.0125	999	C6H6NO2S-
163.0337	1	C8H7N2S-
190.0446	8	C9H8N3S-
254.0065	135	C9H8N3O2S2-
