Mass spectrum: 4-Methoxy-2-methyl-N-phenylaniline; LC-ESI-QFT; MS2; CE: 15; R=17500; [M+H]+
Name: 4-Methoxy-2-methyl-N-phenylaniline
Formula: C14H15NO
Exact mass: 213.1154
SMILES: COC1=CC=C(NC2=CC=CC=C2)C(C)=C1
InChI: InChI=1S/C14H15NO/c1-11-10-13(16-2)8-9-14(11)15-12-6-4-3-5-7-12/h3-10,15H,1-2H3
Instrument: Q Exactive Orbitrap (Thermo Scientific)
Instrument type: LC-ESI-QFT
Ms type: MS2
Ion mode: POSITIVE
Ionization: ESI
Fragmentation mode: HCD
Collision energy: 15
Resolution: 17500
Column name: Acquity BEH C18 1.7um, 2.1x150mm (Waters)
Retention time: 18.354 min
Base peak: 79.0211
Precursor m/z: 214.1226
Precursor type: [M+H]+
Precursor intensity: 30310834.5
m/z	relative intensity	assigned
92.0493	2	C6H6N+
93.0576	1	C6H7N+
122.0603	2	C7H8NO+
122.0726	2	C8H10O+
136.0756	9	C8H10NO+
137.0834	38	C8H11NO+
182.0961	3	C13H12N+
183.1041	3	C13H13N+
199.0993	5	C13H13NO+
214.1223	999	C14H16NO+
