Mass spectrum: Sulfathiazole; LC-ESI-QFT; MS2; CE: 45; R=17500; [M-H]-
Name: Sulfathiazole
Name: 4-amino-N-(1,3-thiazol-2-yl)benzenesulfonamide
Formula: C9H9N3O2S2
Exact mass: 255.0136
SMILES: NC1=CC=C(C=C1)S(=O)(=O)NC1=NC=CS1
InChI: InChI=1S/C9H9N3O2S2/c10-7-1-3-8(4-2-7)16(13,14)12-9-11-5-6-15-9/h1-6H,10H2,(H,11,12)
Instrument: Q Exactive Orbitrap (Thermo Scientific)
Instrument type: LC-ESI-QFT
Ms type: MS2
Ion mode: NEGATIVE
Ionization: ESI
Fragmentation mode: HCD
Collision energy: 45
Resolution: 17500
Column name: Acquity BEH C18 1.7um, 2.1x150mm (Waters)
Retention time: 9.323 min
Base peak: 254.0063
Precursor m/z: 254.0063
Precursor type: [M-H]-
Precursor intensity: 3280784.849121
m/z	relative intensity	assigned
63.9624	187	O2S-
65.0145	54	C3HN2-
70.9835	11	C2HNS-
92.0506	116	C6H6N-
96.9867	1	C3HN2S-
97.9944	746	C3H2N2S-
108.0455	10	C6H6NO-
113.9894	2	C3H2N2OS-
156.0125	999	C6H6NO2S-
190.0447	2	C9H8N3S-
254.0059	6	C9H8N3O2S2-
