Mass spectrum: 2-Hydroxyfluorene; LC-ESI-QFT; MS2; CE: 60; R=17500; [M-H]-
Name: 2-Hydroxyfluorene
Name: 9H-fluoren-2-ol
Formula: C13H10O
Exact mass: 182.0732
SMILES: OC1=CC2=C(C=C1)C1=C(C2)C=CC=C1
InChI: InChI=1S/C13H10O/c14-11-5-6-13-10(8-11)7-9-3-1-2-4-12(9)13/h1-6,8,14H,7H2
Instrument: Q Exactive Orbitrap (Thermo Scientific)
Instrument type: LC-ESI-QFT
Ms type: MS2
Ion mode: NEGATIVE
Ionization: ESI
Fragmentation mode: HCD
Collision energy: 60
Resolution: 17500
Column name: Acquity BEH C18 1.7um, 2.1x150mm (Waters)
Retention time: 17.661 min
Base peak: 317.1618
Precursor m/z: 181.0659
Precursor type: [M-H]-
Precursor intensity: 1287679.151367
m/z	relative intensity	assigned
152.0633	30	C12H8-
153.0711	39	C12H9-
180.0581	899	C13H8O-
181.066	999	C13H9O-
