Mass spectrum: (1,1-Dimethylethyl)urea; LC-ESI-QFT; MS2; CE: 60; R=17500; [M+H]+
Name: (1,1-Dimethylethyl)urea
Name: tert-butylurea
Formula: C5H12N2O
Exact mass: 116.0950
SMILES: CC(C)(C)NC(N)=O
InChI: InChI=1S/C5H12N2O/c1-5(2,3)7-4(6)8/h1-3H3,(H3,6,7,8)
Instrument: Q Exactive Orbitrap (Thermo Scientific)
Instrument type: LC-ESI-QFT
Ms type: MS2
Ion mode: POSITIVE
Ionization: ESI
Fragmentation mode: HCD
Collision energy: 60
Resolution: 17500
Column name: Acquity BEH C18 1.7um, 2.1x150mm (Waters)
Retention time: 10.169 min
Base peak: 79.0211
Precursor m/z: 117.1022
Precursor type: [M+H]+
Precursor intensity: 10212836.125
m/z	relative intensity	assigned
53.0023	32	C3HO+
53.9976	4	C2NO+
55.0543	3	C4H7+
57.0699	999	C4H9+
61.0397	423	CH5N2O+
72.0444	3	C3H6NO+
74.0964	213	C4H12N+
100.0758	2	C5H10NO+
117.1023	232	C5H13N2O+
