Mass spectrum: N-(4-Ethoxyphenyl)-3-oxobutanamide; LC-ESI-QFT; MS2; CE: 30; R=17500; [M+H]+
Name: N-(4-Ethoxyphenyl)-3-oxobutanamide
Formula: C12H15NO3
Exact mass: 221.1052
SMILES: CCOC1=CC=C(NC(=O)CC(C)=O)C=C1
InChI: InChI=1S/C12H15NO3/c1-3-16-11-6-4-10(5-7-11)13-12(15)8-9(2)14/h4-7H,3,8H2,1-2H3,(H,13,15)
Instrument: Q Exactive Orbitrap (Thermo Scientific)
Instrument type: LC-ESI-QFT
Ms type: MS2
Ion mode: POSITIVE
Ionization: ESI
Fragmentation mode: HCD
Collision energy: 30
Resolution: 17500
Column name: Acquity BEH C18 1.7um, 2.1x150mm (Waters)
Retention time: 15.231 min
Base peak: 79.0211
Precursor m/z: 222.1125
Precursor type: [M+H]+
Precursor intensity: 10141919.6875
m/z	relative intensity	assigned
55.0542	15	C4H7+
58.0287	9	C2H4NO+
91.0542	2	C7H7+
111.0443	2	C6H7O2+
119.0857	14	C9H11+
123.044	389	C7H7O2+
137.0598	27	C8H9O2+
137.0962	1	C9H13O+
138.0913	4	C8H12NO+
147.0805	15	C10H11O+
149.0597	1	C9H9O2+
165.0911	999	C10H13O2+
191.0702	2	C11H11O3+
222.1125	30	C12H16NO3+
