Mass spectrum: Prednisolone; LC-ESI-QFT; MS2; CE: 90; R=17500; [M-H]-
Name: Prednisolone
Name: (8S,9S,10R,11S,13S,14S,17R)-11,17-dihydroxy-17-(2-hydroxyacetyl)-10,13-dimethyl-7,8,9,11,12,14,15,16-octahydro-6H-cyclopenta[a]phenanthren-3-one
Formula: C21H28O5
Exact mass: 360.1937
SMILES: C[C@]12C[C@H](O)[C@H]3[C@@H](CCC4=CC(=O)C=C[C@]34C)[C@@H]1CC[C@]2(O)C(=O)CO
InChI: InChI=1S/C21H28O5/c1-19-7-5-13(23)9-12(19)3-4-14-15-6-8-21(26,17(25)11-22)20(15,2)10-16(24)18(14)19/h5,7,9,14-16,18,22,24,26H,3-4,6,8,10-11H2,1-2H3/t14-,15-,16-,18+,19-,20-,21-/m0/s1
Instrument: Q Exactive Orbitrap (Thermo Scientific)
Instrument type: LC-ESI-QFT
Ms type: MS2
Ion mode: NEGATIVE
Ionization: ESI
Fragmentation mode: HCD
Collision energy: 90
Resolution: 17500
Column name: Acquity BEH C18 1.7um, 2.1x150mm (Waters)
Retention time: 15.523 min
Base peak: 405.1917
Precursor m/z: 359.1864
Precursor type: [M-H]-
Precursor intensity: 1334311.479492
m/z	relative intensity	assigned
57.0346	637	C3H5O-
81.0346	47	C5H5O-
94.0425	61	C6H6O-
95.0502	177	C6H7O-
97.066	88	C6H9O-
107.0502	262	C7H7O-
108.0218	89	C6H4O2-
109.0659	403	C7H9O-
119.05	72	C8H7O-
121.066	49	C8H9O-
122.0373	623	C7H6O2-
123.0452	282	C7H7O2-
123.0812	84	C8H11O-
135.0453	88	C8H7O2-
136.0528	221	C8H8O2-
137.0606	566	C8H9O2-
145.0664	41	C10H9O-
147.0452	93	C9H7O2-
148.053	106	C9H8O2-
149.0608	999	C9H9O2-
154.0271	82	C7H6O4-
163.0768	37	C10H11O2-
187.0761	49	C12H11O2-
