Mass spectrum: 4-Methoxy-2-methyl-N-phenylaniline; LC-ESI-QFT; MS2; CE: 30; R=17500; [M+H]+
Name: 4-Methoxy-2-methyl-N-phenylaniline
Formula: C14H15NO
Exact mass: 213.1154
SMILES: COC1=CC=C(NC2=CC=CC=C2)C(C)=C1
InChI: InChI=1S/C14H15NO/c1-11-10-13(16-2)8-9-14(11)15-12-6-4-3-5-7-12/h3-10,15H,1-2H3
Instrument: Q Exactive Orbitrap (Thermo Scientific)
Instrument type: LC-ESI-QFT
Ms type: MS2
Ion mode: POSITIVE
Ionization: ESI
Fragmentation mode: HCD
Collision energy: 30
Resolution: 17500
Column name: Acquity BEH C18 1.7um, 2.1x150mm (Waters)
Retention time: 18.354 min
Base peak: 79.0211
Precursor m/z: 214.1226
Precursor type: [M+H]+
Precursor intensity: 27566669.4375
m/z	relative intensity	assigned
92.0495	10	C6H6N+
93.0575	1	C6H7N+
121.065	1	C8H9O+
122.0597	4	C7H8NO+
122.0726	7	C8H10O+
136.0758	39	C8H10NO+
137.0835	163	C8H11NO+
167.0731	1	C12H9N+
182.0964	12	C13H12N+
183.1043	13	C13H13N+
199.0995	22	C13H13NO+
214.1225	999	C14H16NO+
