Mass spectrum: sec-Butylurea; LC-ESI-QFT; MS2; CE: 15; R=17500; [M+H]+
Name: sec-Butylurea
Name: butan-2-ylurea
Formula: C5H12N2O
Exact mass: 116.0950
SMILES: CCC(C)NC(N)=O
InChI: InChI=1S/C5H12N2O/c1-3-4(2)7-5(6)8/h4H,3H2,1-2H3,(H3,6,7,8)
Instrument: Q Exactive Orbitrap (Thermo Scientific)
Instrument type: LC-ESI-QFT
Ms type: MS2
Ion mode: POSITIVE
Ionization: ESI
Fragmentation mode: HCD
Collision energy: 15
Resolution: 17500
Column name: Acquity BEH C18 1.7um, 2.1x150mm (Waters)
Retention time: 8.917 min
Base peak: 79.0211
Precursor m/z: 117.1022
Precursor type: [M+H]+
Precursor intensity: 6047610.53125
m/z	relative intensity	assigned
53.0022	2	C3HO+
57.0699	184	C4H9+
61.0396	999	CH5N2O+
74.0963	6	C4H12N+
100.0756	3	C5H10NO+
117.1022	337	C5H13N2O+
