Mass spectrum: Prednisolone; LC-ESI-QFT; MS2; CE: 45; R=17500; [M+H]+
Name: Prednisolone
Name: (8S,9S,10R,11S,13S,14S,17R)-11,17-dihydroxy-17-(2-hydroxyacetyl)-10,13-dimethyl-7,8,9,11,12,14,15,16-octahydro-6H-cyclopenta[a]phenanthren-3-one
Formula: C21H28O5
Exact mass: 360.1937
SMILES: C[C@]12C[C@H](O)[C@H]3[C@@H](CCC4=CC(=O)C=C[C@]34C)[C@@H]1CC[C@]2(O)C(=O)CO
InChI: InChI=1S/C21H28O5/c1-19-7-5-13(23)9-12(19)3-4-14-15-6-8-21(26,17(25)11-22)20(15,2)10-16(24)18(14)19/h5,7,9,14-16,18,22,24,26H,3-4,6,8,10-11H2,1-2H3/t14-,15-,16-,18+,19-,20-,21-/m0/s1
Instrument: Q Exactive Orbitrap (Thermo Scientific)
Instrument type: LC-ESI-QFT
Ms type: MS2
Ion mode: POSITIVE
Ionization: ESI
Fragmentation mode: HCD
Collision energy: 45
Resolution: 17500
Column name: Acquity BEH C18 1.7um, 2.1x150mm (Waters)
Retention time: 19.659 min
Base peak: 79.0211
Precursor m/z: 361.201
Precursor type: [M+H]+
Precursor intensity: 26016062.67188
m/z	relative intensity	assigned
68.9972	21	C3HO2+
129.0183	393	C5H5O4+
139.0028	30	C6H3O4+
183.1	61	C10H15O3+
185.1151	121	C10H17O3+
303.1566	33	C18H23O4+
331.1891	16	C20H27O4+
361.1991	999	C21H29O5+
