Mass spectrum: Tris(1,3-dichloro-2-propyl) phosphate; LC-ESI-QFT; MS2; CE: 45; R=17500; [M-H]-
Name: Tris(1,3-dichloro-2-propyl) phosphate
Name: Tris(1,3-dichloro-2-propyl)phosphate
Name: tris(1,3-dichloropropan-2-yl) phosphate
Formula: C9H15Cl6O4P
Exact mass: 427.8839
SMILES: ClCC(CCl)OP(=O)(OC(CCl)CCl)OC(CCl)CCl
InChI: InChI=1S/C9H15Cl6O4P/c10-1-7(2-11)17-20(16,18-8(3-12)4-13)19-9(5-14)6-15/h7-9H,1-6H2
Instrument: Q Exactive Orbitrap (Thermo Scientific)
Instrument type: LC-ESI-QFT
Ms type: MS2
Ion mode: NEGATIVE
Ionization: ESI
Fragmentation mode: HCD
Collision energy: 45
Resolution: 17500
Column name: Acquity BEH C18 1.7um, 2.1x150mm (Waters)
Retention time: 18.491 min
Base peak: 112.9857
Precursor m/z: 426.8766
Precursor type: [M-H]-
Precursor intensity: 861600.9853516
m/z	relative intensity	assigned
159.0646	999	C7H11O4-
