Mass spectrum: 1,2-Diphenylethanone; LC-ESI-QFT; MS2; CE: 90; R=17500; [M+H]+
Name: 1,2-Diphenylethanone
Name: Deoxybenzoin
Formula: C14H12O
Exact mass: 196.0888
SMILES: O=C(CC1=CC=CC=C1)C1=CC=CC=C1
InChI: InChI=1S/C14H12O/c15-14(13-9-5-2-6-10-13)11-12-7-3-1-4-8-12/h1-10H,11H2
Instrument: Q Exactive Orbitrap (Thermo Scientific)
Instrument type: LC-ESI-QFT
Ms type: MS2
Ion mode: POSITIVE
Ionization: ESI
Fragmentation mode: HCD
Collision energy: 90
Resolution: 17500
Column name: Acquity BEH C18 1.7um, 2.1x150mm (Waters)
Retention time: 18.311 min
Base peak: 79.0211
Precursor m/z: 197.0961
Precursor type: [M+H]+
Precursor intensity: 1416962.75
m/z	relative intensity	assigned
50.0151	10	C4H2+
51.023	40	C4H3+
53.0386	405	C4H5+
55.0179	19	C3H3O+
57.0699	5	C4H9+
65.0386	183	C5H5+
67.0542	15	C5H7+
77.0386	116	C6H5+
81.0336	39	C5H5O+
81.0698	4	C6H9+
91.0543	853	C7H7+
94.0414	42	C6H6O+
95.0492	999	C6H7O+
105.0336	671	C7H5O+
109.0649	130	C7H9O+
119.0492	198	C8H7O+
