Mass spectrum: Stavudine; LC-ESI-QFT; MS2; CE: 90; R=17500; [M+H]+
Name: Stavudine
Name: 1-[(2R,5S)-5-(hydroxymethyl)-2,5-dihydrofuran-2-yl]-5-methylpyrimidine-2,4-dione
Formula: C10H12N2O4
Exact mass: 224.0797
SMILES: CC1=CN([C@@H]2O[C@H](CO)C=C2)C(=O)NC1=O
InChI: InChI=1S/C10H12N2O4/c1-6-4-12(10(15)11-9(6)14)8-3-2-7(5-13)16-8/h2-4,7-8,13H,5H2,1H3,(H,11,14,15)/t7-,8+/m0/s1
Instrument: Q Exactive Orbitrap (Thermo Scientific)
Instrument type: LC-ESI-QFT
Ms type: MS2
Ion mode: POSITIVE
Ionization: ESI
Fragmentation mode: HCD
Collision energy: 90
Resolution: 17500
Column name: Acquity BEH C18 1.7um, 2.1x150mm (Waters)
Retention time: 18.122 min
Base peak: 79.0211
Precursor m/z: 225.087
Precursor type: [M+H]+
Precursor intensity: 4714719.625
m/z	relative intensity	assigned
53.0386	19	C4H5+
55.0542	67	C4H7+
61.0396	43	CH5N2O+
79.0541	30	C6H7+
80.0575	21	CH8N2O2+
83.0857	20	C6H11+
90.0106	283	C6H2O+
91.014	100	CH3N2O3+
91.0542	45	C7H7+
92.0575	59	C2H8N2O2+
95.0492	45	C6H7O+
104.0492	20	C7H6N+
106.0651	27	C7H8N+
116.0577	23	C4H8N2O2+
117.0575	86	C8H7N+
118.0608	161	C5H10O3+
118.0649	26	C8H8N+
119.0012	58	C6HNO2+
119.0686	44	C5H11O3+
121.9883	257	C5NO3+
124.0507	22	C7H8O2+
131.0684	43	C6H11O3+
132.0811	162	C9H10N+
133.0841	446	C6H13O3+
133.0889	91	C9H11N+
136.0039	66	C6H2NO3+
137.0118	999	C6H3NO3+
139.9988	201	C5H2NO4+
145.0843	102	C7H13O3+
151.0275	287	C7H5NO3+
154.0143	50	C6H4NO4+
155.0224	608	C6H5NO4+
169.038	174	C7H7NO4+
183.054	41	C8H9NO4+
