Mass spectrum: 4-Chlorophenol; LC-ESI-QFT; MS2; CE: 60; R=17500; [M-H]-
Name: 4-Chlorophenol
Formula: C6H5ClO
Exact mass: 128.0029
SMILES: OC1=CC=C(Cl)C=C1
InChI: InChI=1S/C6H5ClO/c7-5-1-3-6(8)4-2-5/h1-4,8H
Instrument: Q Exactive Orbitrap (Thermo Scientific)
Instrument type: LC-ESI-QFT
Ms type: MS2
Ion mode: NEGATIVE
Ionization: ESI
Fragmentation mode: HCD
Collision energy: 60
Resolution: 17500
Column name: Acquity BEH C18 1.7um, 2.1x150mm (Waters)
Retention time: 17.287 min
Base peak: 126.9956
Precursor m/z: 126.9956
Precursor type: [M-H]-
Precursor intensity: 16036174.77441
m/z	relative intensity	assigned
91.0189	128	C6H3O-
126.9956	999	C6H4ClO-
