Mass spectrum: 4-Methoxy-2-methyl-N-phenylaniline; LC-ESI-QFT; MS2; CE: 75; R=17500; [M+H]+
Name: 4-Methoxy-2-methyl-N-phenylaniline
Formula: C14H15NO
Exact mass: 213.1154
SMILES: COC1=CC=C(NC2=CC=CC=C2)C(C)=C1
InChI: InChI=1S/C14H15NO/c1-11-10-13(16-2)8-9-14(11)15-12-6-4-3-5-7-12/h3-10,15H,1-2H3
Instrument: Q Exactive Orbitrap (Thermo Scientific)
Instrument type: LC-ESI-QFT
Ms type: MS2
Ion mode: POSITIVE
Ionization: ESI
Fragmentation mode: HCD
Collision energy: 75
Resolution: 17500
Column name: Acquity BEH C18 1.7um, 2.1x150mm (Waters)
Retention time: 18.354 min
Base peak: 79.0211
Precursor m/z: 214.1226
Precursor type: [M+H]+
Precursor intensity: 29833918.875
m/z	relative intensity	assigned
53.0386	1	C4H5+
65.0386	26	C5H5+
66.0464	1	C5H6+
77.0386	1	C6H5+
78.0463	1	C6H6+
79.0542	7	C6H7+
81.0699	1	C6H9+
91.0542	13	C7H7+
92.0495	37	C6H6N+
92.0621	7	C7H8+
93.0573	90	C6H7N+
94.0651	27	C6H8N+
95.0491	3	C6H7O+
106.0651	10	C7H8N+
107.0491	7	C7H7O+
108.0808	1	C7H10N+
109.0648	2	C7H9O+
121.0523	26	C7H7NO+
121.0649	5	C8H9O+
122.06	999	C7H8NO+
129.0698	1	C10H9+
136.0758	77	C8H10NO+
137.0835	382	C8H11NO+
153.0697	1	C12H9+
156.0815	5	C11H10N+
165.0701	2	C13H9+
167.0728	10	C12H9N+
168.0809	2	C12H10N+
169.0884	1	C12H11N+
170.0967	4	C12H12N+
180.081	2	C13H10N+
182.0965	13	C13H12N+
183.1043	12	C13H13N+
184.0757	38	C12H10NO+
198.0915	4	C13H12NO+
199.0998	9	C13H13NO+
214.1228	2	C14H16NO+
