Mass spectrum: Stavudine; LC-ESI-QFT; MS2; CE: 45; R=17500; [M-H]-
Name: Stavudine
Name: 1-[(2R,5S)-5-(hydroxymethyl)-2,5-dihydrofuran-2-yl]-5-methylpyrimidine-2,4-dione
Formula: C10H12N2O4
Exact mass: 224.0797
SMILES: CC1=CN([C@@H]2O[C@H](CO)C=C2)C(=O)NC1=O
InChI: InChI=1S/C10H12N2O4/c1-6-4-12(10(15)11-9(6)14)8-3-2-7(5-13)16-8/h2-4,7-8,13H,5H2,1H3,(H,11,14,15)/t7-,8+/m0/s1
Instrument: Q Exactive Orbitrap (Thermo Scientific)
Instrument type: LC-ESI-QFT
Ms type: MS2
Ion mode: NEGATIVE
Ionization: ESI
Fragmentation mode: HCD
Collision energy: 45
Resolution: 17500
Column name: Acquity BEH C18 1.7um, 2.1x150mm (Waters)
Retention time: 8.954 min
Base peak: 198.9364
Precursor m/z: 223.0724
Precursor type: [M-H]-
Precursor intensity: 1268682.545532
m/z	relative intensity	assigned
122.0611	566	C7H8NO-
158.0376	224	C10H6O2-
159.0453	999	C10H7O2-
