Mass spectrum: 4-Methoxy-2-methyl-N-phenylaniline; LC-ESI-QFT; MS2; CE: 60; R=17500; [M+H]+
Name: 4-Methoxy-2-methyl-N-phenylaniline
Formula: C14H15NO
Exact mass: 213.1154
SMILES: COC1=CC=C(NC2=CC=CC=C2)C(C)=C1
InChI: InChI=1S/C14H15NO/c1-11-10-13(16-2)8-9-14(11)15-12-6-4-3-5-7-12/h3-10,15H,1-2H3
Instrument: Q Exactive Orbitrap (Thermo Scientific)
Instrument type: LC-ESI-QFT
Ms type: MS2
Ion mode: POSITIVE
Ionization: ESI
Fragmentation mode: HCD
Collision energy: 60
Resolution: 17500
Column name: Acquity BEH C18 1.7um, 2.1x150mm (Waters)
Retention time: 18.354 min
Base peak: 79.0211
Precursor m/z: 214.1226
Precursor type: [M+H]+
Precursor intensity: 25293751.875
m/z	relative intensity	assigned
65.0385	12	C5H5+
77.0384	1	C6H5+
79.0541	2	C6H7+
81.0698	1	C6H9+
91.0542	7	C7H7+
92.0494	65	C6H6N+
92.062	5	C7H8+
93.0573	39	C6H7N+
94.0651	4	C6H8N+
95.049	1	C6H7O+
106.0651	8	C7H8N+
107.049	3	C7H7O+
108.0807	1	C7H10N+
109.0648	2	C7H9O+
121.0522	20	C7H7NO+
121.0648	7	C8H9O+
122.06	616	C7H8NO+
122.0719	48	C8H10O+
124.0757	1	C7H10NO+
136.0758	175	C8H10NO+
137.0835	999	C8H11NO+
155.0854	2	C12H11+
156.0812	2	C11H10N+
165.0696	2	C13H9+
167.0729	13	C12H9N+
168.0805	1	C12H10N+
170.0965	3	C12H12N+
171.1052	2	C12H13N+
180.0805	1	C13H10N+
181.0885	1	C13H11N+
182.0965	21	C13H12N+
183.1042	37	C13H13N+
184.0757	38	C12H10NO+
198.0911	6	C13H12NO+
199.0995	46	C13H13NO+
214.1226	52	C14H16NO+
