Mass spectrum: Dodecyl gallate; LC-ESI-QFT; MS2; CE: 90; R=17500; [M-H]-
Name: Dodecyl gallate
Name: dodecyl 3,4,5-trihydroxybenzoate
Formula: C19H30O5
Exact mass: 338.2093
SMILES: CCCCCCCCCCCCOC(=O)C1=CC(O)=C(O)C(O)=C1
InChI: InChI=1S/C19H30O5/c1-2-3-4-5-6-7-8-9-10-11-12-24-19(23)15-13-16(20)18(22)17(21)14-15/h13-14,20-22H,2-12H2,1H3
Instrument: Q Exactive Orbitrap (Thermo Scientific)
Instrument type: LC-ESI-QFT
Ms type: MS2
Ion mode: NEGATIVE
Ionization: ESI
Fragmentation mode: HCD
Collision energy: 90
Resolution: 17500
Column name: Acquity BEH C18 1.7um, 2.1x150mm (Waters)
Retention time: 20.612 min
Base peak: 112.9856
Precursor m/z: 337.202
Precursor type: [M-H]-
Precursor intensity: 859792.2631836
m/z	relative intensity	assigned
65.0034	125	C4HO-
67.0191	125	C4H3O-
69.0346	217	C4H5O-
72.993	63	C2HO3-
78.0112	105	C5H2O-
79.0189	67	C5H3O-
95.0139	194	C5H3O2-
97.0296	149	C5H5O2-
106.006	299	C6H2O2-
107.014	74	C6H3O2-
111.0088	534	C5H3O3-
123.0089	434	C6H3O3-
124.0165	498	C6H4O3-
125.0244	999	C6H5O3-
127.0035	305	C5H3O4-
136.9881	323	C6HO4-
139.0038	520	C6H3O4-
140.0116	818	C6H4O4-
154.9982	79	C6H3O5-
