Mass spectrum: Stavudine; LC-ESI-QFT; MS2; CE: 30; R=17500; [M+H]+
Name: Stavudine
Name: 1-[(2R,5S)-5-(hydroxymethyl)-2,5-dihydrofuran-2-yl]-5-methylpyrimidine-2,4-dione
Formula: C10H12N2O4
Exact mass: 224.0797
SMILES: CC1=CN([C@@H]2O[C@H](CO)C=C2)C(=O)NC1=O
InChI: InChI=1S/C10H12N2O4/c1-6-4-12(10(15)11-9(6)14)8-3-2-7(5-13)16-8/h2-4,7-8,13H,5H2,1H3,(H,11,14,15)/t7-,8+/m0/s1
Instrument: Q Exactive Orbitrap (Thermo Scientific)
Instrument type: LC-ESI-QFT
Ms type: MS2
Ion mode: POSITIVE
Ionization: ESI
Fragmentation mode: HCD
Collision energy: 30
Resolution: 17500
Column name: Acquity BEH C18 1.7um, 2.1x150mm (Waters)
Retention time: 18.045 min
Base peak: 79.0212
Precursor m/z: 225.087
Precursor type: [M+H]+
Precursor intensity: 8854395
m/z	relative intensity	assigned
90.0106	47	C6H2O+
91.0136	15	CH3N2O3+
119.0009	6	C6HNO2+
121.0842	6	C5H13O3+
137.0119	91	C6H3NO3+
146.9961	89	C7HNO3+
151.0274	26	C7H5NO3+
155.0226	54	C6H5NO4+
165.0068	999	C7H3NO4+
169.0381	14	C7H7NO4+
179.0225	255	C8H5NO4+
181.0721	44	C9H11NO3+
183.0175	229	C10H3N2O2+
207.0769	12	C10H11N2O3+
225.0879	200	C10H13N2O4+
