Mass spectrum: 2-Amino-5-nitrophenol; LC-ESI-QFT; MS2; CE: 90; R=17500; [M-H]-
Name: 2-Amino-5-nitrophenol
Formula: C6H6N2O3
Exact mass: 154.0378
SMILES: NC1=C(O)C=C(C=C1)[N+]([O-])=O
InChI: InChI=1S/C6H6N2O3/c7-5-2-1-4(8(10)11)3-6(5)9/h1-3,9H,7H2
Instrument: Q Exactive Orbitrap (Thermo Scientific)
Instrument type: LC-ESI-QFT
Ms type: MS2
Ion mode: NEGATIVE
Ionization: ESI
Fragmentation mode: HCD
Collision energy: 90
Resolution: 17500
Column name: Acquity BEH C18 1.7um, 2.1x150mm (Waters)
Retention time: 11.160 min
Base peak: 266.1186
Precursor m/z: 153.0306
Precursor type: [M-H]-
Precursor intensity: 4931738.8396
m/z	relative intensity	assigned
65.9986	5	C3NO-
68.014	4	C3H2NO-
80.0142	21	C4H2NO-
94.0298	53	C5H4NO-
95.0139	45	C5H3O2-
106.0298	9	C6H4NO-
122.0248	999	C6H4NO2-
123.0088	12	C6H3O3-
153.0304	18	C6H5N2O3-
