Mass spectrum: Prednisolone; LC-ESI-QFT; MS2; CE: 30; R=17500; [M-H]-
Name: Prednisolone
Name: (8S,9S,10R,11S,13S,14S,17R)-11,17-dihydroxy-17-(2-hydroxyacetyl)-10,13-dimethyl-7,8,9,11,12,14,15,16-octahydro-6H-cyclopenta[a]phenanthren-3-one
Formula: C21H28O5
Exact mass: 360.1937
SMILES: C[C@]12C[C@H](O)[C@H]3[C@@H](CCC4=CC(=O)C=C[C@]34C)[C@@H]1CC[C@]2(O)C(=O)CO
InChI: InChI=1S/C21H28O5/c1-19-7-5-13(23)9-12(19)3-4-14-15-6-8-21(26,17(25)11-22)20(15,2)10-16(24)18(14)19/h5,7,9,14-16,18,22,24,26H,3-4,6,8,10-11H2,1-2H3/t14-,15-,16-,18+,19-,20-,21-/m0/s1
Instrument: Q Exactive Orbitrap (Thermo Scientific)
Instrument type: LC-ESI-QFT
Ms type: MS2
Ion mode: NEGATIVE
Ionization: ESI
Fragmentation mode: HCD
Collision energy: 30
Resolution: 17500
Column name: Acquity BEH C18 1.7um, 2.1x150mm (Waters)
Retention time: 15.523 min
Base peak: 405.1917
Precursor m/z: 359.1864
Precursor type: [M-H]-
Precursor intensity: 1256276.510742
m/z	relative intensity	assigned
57.0345	5	C3H5O-
95.0499	3	C6H7O-
109.0659	35	C7H9O-
123.0453	12	C7H7O2-
123.0817	36	C8H11O-
125.0608	52	C7H9O2-
135.0817	17	C9H11O-
136.0531	7	C8H8O2-
137.0609	119	C8H9O2-
149.0611	10	C9H9O2-
168.0426	3	C8H8O4-
179.1078	17	C11H15O2-
203.1072	14	C13H15O2-
205.123	5	C13H17O2-
257.155	34	C17H21O2-
259.1343	10	C16H19O3-
271.1336	16	C17H19O3-
283.1698	5	C19H23O2-
284.1417	4	C18H20O3-
299.1649	13	C19H23O3-
301.1809	155	C19H25O3-
311.1654	147	C20H23O3-
326.1527	22	C20H22O4-
329.1759	999	C20H25O4-
341.1758	34	C21H25O4-
