Mass spectrum: Olivetol; LC-ESI-QFT; MS2; CE: 45; R=17500; [M-H]-
Name: Olivetol
Name: 5-pentylbenzene-1,3-diol
Formula: C11H16O2
Exact mass: 180.1150
SMILES: CCCCCC1=CC(O)=CC(O)=C1
InChI: InChI=1S/C11H16O2/c1-2-3-4-5-9-6-10(12)8-11(13)7-9/h6-8,12-13H,2-5H2,1H3
Instrument: Q Exactive Orbitrap (Thermo Scientific)
Instrument type: LC-ESI-QFT
Ms type: MS2
Ion mode: NEGATIVE
Ionization: ESI
Fragmentation mode: HCD
Collision energy: 45
Resolution: 17500
Column name: Acquity BEH C18 1.7um, 2.1x150mm (Waters)
Retention time: 18.144 min
Base peak: 112.9856
Precursor m/z: 179.1078
Precursor type: [M-H]-
Precursor intensity: 327681.5458984
m/z	relative intensity	assigned
136.0531	10	C8H8O2-
151.0766	27	C9H11O2-
163.0764	18	C10H11O2-
179.1078	999	C11H15O2-
