Mass spectrum: Stavudine; LC-ESI-QFT; MS2; CE: 75; R=17500; [M+H]+
Name: Stavudine
Name: 1-[(2R,5S)-5-(hydroxymethyl)-2,5-dihydrofuran-2-yl]-5-methylpyrimidine-2,4-dione
Formula: C10H12N2O4
Exact mass: 224.0797
SMILES: CC1=CN([C@@H]2O[C@H](CO)C=C2)C(=O)NC1=O
InChI: InChI=1S/C10H12N2O4/c1-6-4-12(10(15)11-9(6)14)8-3-2-7(5-13)16-8/h2-4,7-8,13H,5H2,1H3,(H,11,14,15)/t7-,8+/m0/s1
Instrument: Q Exactive Orbitrap (Thermo Scientific)
Instrument type: LC-ESI-QFT
Ms type: MS2
Ion mode: POSITIVE
Ionization: ESI
Fragmentation mode: HCD
Collision energy: 75
Resolution: 17500
Column name: Acquity BEH C18 1.7um, 2.1x150mm (Waters)
Retention time: 18.122 min
Base peak: 79.0211
Precursor m/z: 225.087
Precursor type: [M+H]+
Precursor intensity: 4802992.234375
m/z	relative intensity	assigned
53.0386	14	C4H5+
55.0542	48	C4H7+
61.0397	47	CH5N2O+
79.0543	41	C6H7+
80.0577	17	CH8N2O2+
83.0854	18	C6H11+
90.0106	188	C6H2O+
91.0139	68	CH3N2O3+
91.0543	12	C7H7+
92.0576	15	C2H8N2O2+
95.0493	40	C6H7O+
104.0495	22	C7H6N+
106.0652	51	C7H8N+
116.0578	19	C4H8N2O2+
117.0576	21	C8H7N+
118.0608	26	C5H10O3+
118.0653	9	C8H8N+
119.0012	59	C6HNO2+
119.0688	11	C5H11O3+
121.9883	73	C5NO3+
124.0506	20	C7H8O2+
131.0685	22	C6H11O3+
132.081	44	C9H10N+
133.0842	161	C6H13O3+
133.0889	70	C9H11N+
136.004	24	C6H2NO3+
137.0118	999	C6H3NO3+
139.9989	73	C5H2NO4+
145.0844	38	C7H13O3+
151.0274	278	C7H5NO3+
154.0147	31	C6H4NO4+
155.0224	822	C6H5NO4+
165.0069	42	C7H3NO4+
169.0381	225	C7H7NO4+
179.0228	14	C8H5NO4+
183.0173	13	C10H3N2O2+
183.0537	36	C8H9NO4+
