Mass spectrum: N-(4-Ethoxyphenyl)-3-oxobutanamide; LC-ESI-QFT; MS2; CE: 60; R=17500; [M+H]+
Name: N-(4-Ethoxyphenyl)-3-oxobutanamide
Formula: C12H15NO3
Exact mass: 221.1052
SMILES: CCOC1=CC=C(NC(=O)CC(C)=O)C=C1
InChI: InChI=1S/C12H15NO3/c1-3-16-11-6-4-10(5-7-11)13-12(15)8-9(2)14/h4-7H,3,8H2,1-2H3,(H,13,15)
Instrument: Q Exactive Orbitrap (Thermo Scientific)
Instrument type: LC-ESI-QFT
Ms type: MS2
Ion mode: POSITIVE
Ionization: ESI
Fragmentation mode: HCD
Collision energy: 60
Resolution: 17500
Column name: Acquity BEH C18 1.7um, 2.1x150mm (Waters)
Retention time: 15.231 min
Base peak: 79.0211
Precursor m/z: 222.1125
Precursor type: [M+H]+
Precursor intensity: 9605308.28125
m/z	relative intensity	assigned
51.0229	1	C4H3+
53.0022	1	C3HO+
53.0387	5	C4H5+
55.0542	130	C4H7+
58.0287	27	C2H4NO+
65.0385	1	C5H5+
67.0542	8	C5H7+
77.0386	2	C6H5+
79.0541	2	C6H7+
81.0336	1	C5H5O+
91.0542	58	C7H7+
95.0491	26	C6H7O+
105.0335	4	C7H5O+
107.0491	4	C7H7O+
109.0285	6	C6H5O2+
109.0649	2	C7H9O+
110.0359	1	C6H6O2+
110.0601	1	C6H8NO+
111.044	14	C6H7O2+
117.0697	3	C9H9+
119.0492	7	C8H7O+
119.0856	34	C9H11+
123.044	999	C7H7O2+
131.0491	1	C9H7O+
132.057	2	C9H8O+
137.0598	57	C8H9O2+
138.0914	1	C8H12NO+
147.0804	20	C10H11O+
149.0596	1	C9H9O2+
165.091	52	C10H13O2+
