Mass spectrum: 4-Methoxy-2-methylaniline; LC-ESI-QFT; MS2; CE: 75; R=17500; [M+H]+
Name: 4-Methoxy-2-methylaniline
Formula: C8H11NO
Exact mass: 137.0841
SMILES: COC1=CC(C)=C(N)C=C1
InChI: InChI=1S/C8H11NO/c1-6-5-7(10-2)3-4-8(6)9/h3-5H,9H2,1-2H3
Instrument: Q Exactive Orbitrap (Thermo Scientific)
Instrument type: LC-ESI-QFT
Ms type: MS2
Ion mode: POSITIVE
Ionization: ESI
Fragmentation mode: HCD
Collision energy: 75
Resolution: 17500
Column name: Acquity BEH C18 1.7um, 2.1x150mm (Waters)
Retention time: 9.936 min
Base peak: 79.0211
Precursor m/z: 138.0913
Precursor type: [M+H]+
Precursor intensity: 16536192.71875
m/z	relative intensity	assigned
53.0386	9	C4H5+
65.0385	1	C5H5+
66.0463	1	C5H6+
67.0416	1	C4H5N+
77.0385	5	C6H5+
78.0464	100	C6H6+
79.0542	98	C6H7+
80.0495	16	C5H6N+
80.062	1	C6H8+
81.0335	1	C5H5O+
86.0036	2	C6N+
89.0386	2	C7H5+
91.0416	1	C6H5N+
91.0543	5	C7H7+
93.0572	2	C6H7N+
94.0652	49	C6H8N+
95.0491	28	C6H7O+
95.0729	15	C6H9N+
96.0445	2	C5H6NO+
104.0496	3	C7H6N+
105.0337	1	C7H5O+
105.0575	4	C7H7N+
106.0414	40	C7H6O+
106.0651	153	C7H8N+
107.0492	12	C7H7O+
107.0729	23	C7H9N+
108.0444	30	C6H6NO+
121.0647	2	C8H9O+
122.0601	154	C7H8NO+
123.0678	999	C7H9NO+
138.0914	24	C8H12NO+
