Mass spectrum: 2-Aminobenzimidazole; LC-ESI-QFT; MS2; CE: 45; R=17500; [M-H]-
Name: 2-Aminobenzimidazole
Formula: C7H7N3
Exact mass: 133.0640
SMILES: NC1=NC2=CC=CC=C2N1
InChI: InChI=1S/C7H7N3/c8-7-9-5-3-1-2-4-6(5)10-7/h1-4H,(H3,8,9,10)
Instrument: Q Exactive Orbitrap (Thermo Scientific)
Instrument type: LC-ESI-QFT
Ms type: MS2
Ion mode: NEGATIVE
Ionization: ESI
Fragmentation mode: HCD
Collision energy: 45
Resolution: 17500
Column name: Acquity BEH C18 1.7um, 2.1x150mm (Waters)
Retention time: 8.628 min
Base peak: 198.9363
Precursor m/z: 132.0567
Precursor type: [M-H]-
Precursor intensity: 4157013.055664
m/z	relative intensity	assigned
131.0492	2	C7H5N3-
132.0567	999	C7H6N3-
