Mass spectrum: Phenobarbital; LC-ESI-QFT; MS2; CE: 75; R=17500; [M+H]+
Name: Phenobarbital
Name: 5-ethyl-5-phenyl-1,3-diazinane-2,4,6-trione
Formula: C12H12N2O3
Exact mass: 232.0848
SMILES: CCC1(C(=O)NC(O)=NC1=O)c1ccccc1
InChI: InChI=1S/C12H12N2O3/c1-2-12(8-6-4-3-5-7-8)9(15)13-11(17)14-10(12)16/h3-7H,2H2,1H3,(H2,13,14,15,16,17)
Instrument: Q Exactive Orbitrap (Thermo Scientific)
Instrument type: LC-ESI-QFT
Ms type: MS2
Ion mode: POSITIVE
Ionization: ESI
Fragmentation mode: HCD
Collision energy: 75
Resolution: 17500
Column name: Acquity BEH C18 1.7um, 2.1x150mm (Waters)
Retention time: 15.216 min
Base peak: 79.0212
Precursor m/z: 233.0921
Precursor type: [M+H]+
Precursor intensity: 4522778.6875
m/z	relative intensity	assigned
53.0385	6	C4H5+
65.0385	3	C5H5+
72.0444	8	C3H6NO+
77.0385	1	C6H5+
80.0494	19	C5H6N+
92.0494	10	C6H6N+
95.0492	4	C6H7O+
96.0444	4	C5H6NO+
104.0494	212	C7H6N+
105.0447	9	C6H5N2+
107.0603	5	C6H7N2+
108.0444	5	C6H6NO+
110.0599	16	C6H8NO+
117.0447	2	C7H5N2+
122.0601	5	C7H8NO+
126.0548	4	C6H8NO2+
131.0604	326	C8H7N2+
135.0551	5	C7H7N2O+
138.0553	2	C7H8NO2+
143.0603	43	C9H7N2+
147.0553	8	C8H7N2O+
149.0708	3	C8H9N2O+
159.0552	830	C9H7N2O+
161.0345	1	C8H5N2O2+
187.0502	421	C10H7N2O2+
205.0608	999	C10H9N2O3+
215.081	4	C12H11N2O2+
219.0764	49	C11H11N2O3+
233.092	51	C12H13N2O3+
