Mass spectrum: Aloe-emodin; LC-ESI-QFT; MS2; CE: 90; R=17500; [M-H]-
Name: Aloe-emodin
Formula: C15H10O5
Exact mass: 270.0528
SMILES: OCC1=CC2=C(C(O)=C1)C(=O)C1=C(C=CC=C1O)C2=O
InChI: InChI=1S/C15H10O5/c16-6-7-4-9-13(11(18)5-7)15(20)12-8(14(9)19)2-1-3-10(12)17/h1-5,16-18H,6H2
Instrument: Q Exactive Orbitrap (Thermo Scientific)
Instrument type: LC-ESI-QFT
Ms type: MS2
Ion mode: NEGATIVE
Ionization: ESI
Fragmentation mode: HCD
Collision energy: 90
Resolution: 17500
Column name: Acquity BEH C18 1.7um, 2.1x150mm (Waters)
Retention time: 19.838 min
Base peak: 269.0455
Precursor m/z: 269.0455
Precursor type: [M-H]-
Precursor intensity: 65660109.40723
m/z	relative intensity	assigned
63.024	29	C5H3-
65.0033	93	C4HO-
65.0397	16	C5H5-
77.0397	31	C6H5-
89.0397	69	C7H5-
91.019	51	C6H3O-
103.0552	10	C8H7-
105.0346	430	C7H5O-
113.0397	24	C9H5-
115.0553	166	C9H7-
117.0347	19	C8H5O-
127.0553	35	C10H7-
129.071	14	C10H9-
130.0425	17	C9H6O-
131.0503	52	C9H7O-
132.0214	6	C8H4O2-
133.0295	12	C8H5O2-
133.0659	50	C9H9O-
135.0092	3	C7H3O3-
139.0553	99	C11H7-
141.0711	36	C11H9-
143.0503	91	C10H7O-
145.0659	6	C10H9O-
151.0552	16	C12H7-
152.0632	72	C12H8-
153.071	102	C12H9-
154.0425	219	C11H6O-
155.0503	50	C11H7O-
156.058	10	C11H8O-
157.0659	233	C11H9O-
158.0372	16	C10H6O2-
159.0451	51	C10H7O2-
161.0609	50	C10H9O2-
166.043	3	C12H6O-
167.0502	120	C12H7O-
168.0581	84	C12H8O-
169.066	74	C12H9O-
170.0372	13	C11H6O2-
171.0452	495	C11H7O2-
172.0529	19	C11H8O2-
173.0609	50	C11H9O2-
175.04	53	C10H7O3-
178.0424	36	C13H6O-
179.0503	156	C13H7O-
180.0581	203	C13H8O-
181.066	112	C13H9O-
182.0374	999	C12H6O2-
183.045	58	C12H7O2-
184.053	58	C12H8O2-
185.0608	677	C12H9O2-
186.033	4	C11H6O3-
187.0403	35	C11H7O3-
195.0451	749	C13H7O2-
196.0529	345	C13H8O2-
197.0608	264	C13H9O2-
198.0323	49	C12H6O3-
199.0401	85	C12H7O3-
201.0195	5	C11H5O4-
201.0554	12	C12H9O3-
207.0452	35	C14H7O2-
210.0323	132	C13H6O3-
211.0401	45	C13H7O3-
212.048	99	C13H8O3-
213.0557	171	C13H9O3-
223.0402	59	C14H7O3-
224.0479	322	C14H8O3-
225.0558	179	C14H9O3-
226.0269	20	C13H6O4-
227.035	59	C13H7O4-
228.0423	4	C13H8O4-
239.035	8	C14H7O4-
240.0428	506	C14H8O4-
241.0508	135	C14H9O4-
256.0376	37	C14H8O5-
268.0382	6	C15H8O5-
269.0459	9	C15H9O5-
