Mass spectrum: Sulfathiazole; LC-ESI-QFT; MS2; CE: 15; R=17500; [M+H]+
Name: Sulfathiazole
Name: 4-amino-N-(1,3-thiazol-2-yl)benzenesulfonamide
Formula: C9H9N3O2S2
Exact mass: 255.0136
SMILES: NC1=CC=C(C=C1)S(=O)(=O)NC1=NC=CS1
InChI: InChI=1S/C9H9N3O2S2/c10-7-1-3-8(4-2-7)16(13,14)12-9-11-5-6-15-9/h1-6H,10H2,(H,11,12)
Instrument: Q Exactive Orbitrap (Thermo Scientific)
Instrument type: LC-ESI-QFT
Ms type: MS2
Ion mode: POSITIVE
Ionization: ESI
Fragmentation mode: HCD
Collision energy: 15
Resolution: 17500
Column name: Acquity BEH C18 1.7um, 2.1x150mm (Waters)
Retention time: 14.046 min
Base peak: 79.0211
Precursor m/z: 256.0209
Precursor type: [M+H]+
Precursor intensity: 31366657.46875
m/z	relative intensity	assigned
61.0106	85	C2H5S+
139.9565	55	H2N3O2S2+
167.9879	196	C5H2N3O2S+
199.96	147	C5H2N3O2S2+
227.9912	532	C7H6N3O2S2+
256.0225	999	C9H10N3O2S2+
