Mass spectrum: Benzocaine; LC-ESI-QFT; MS2; CE: 30; R=17500; [M+H]+
Name: Benzocaine
Name: ethyl 4-aminobenzoate
Formula: C9H11NO2
Exact mass: 165.0790
SMILES: CCOC(=O)C1=CC=C(N)C=C1
InChI: InChI=1S/C9H11NO2/c1-2-12-9(11)7-3-5-8(10)6-4-7/h3-6H,2,10H2,1H3
Instrument: Q Exactive Orbitrap (Thermo Scientific)
Instrument type: LC-ESI-QFT
Ms type: MS2
Ion mode: POSITIVE
Ionization: ESI
Fragmentation mode: HCD
Collision energy: 30
Resolution: 17500
Column name: Acquity BEH C18 1.7um, 2.1x150mm (Waters)
Retention time: 19.160 min
Base peak: 79.0211
Precursor m/z: 166.0863
Precursor type: [M+H]+
Precursor intensity: 3679603.5
m/z	relative intensity	assigned
58.0288	1	C2H4NO+
81.0698	7	C6H9+
91.0542	2	C7H7+
94.0413	3	C6H6O+
107.0492	2	C7H7O+
109.0648	999	C7H9O+
166.0863	6	C9H12NO2+
