Mass spectrum: Phthalic acid; LC-ESI-QFT; MS2; CE: 90; R=17500; [M-H]-
Name: Phthalic acid
Formula: C8H6O4
Exact mass: 166.0266
SMILES: OC(=O)C1=CC=CC=C1C(O)=O
InChI: InChI=1S/C8H6O4/c9-7(10)5-3-1-2-4-6(5)8(11)12/h1-4H,(H,9,10)(H,11,12)
Instrument: Q Exactive Orbitrap (Thermo Scientific)
Instrument type: LC-ESI-QFT
Ms type: MS2
Ion mode: NEGATIVE
Ionization: ESI
Fragmentation mode: HCD
Collision energy: 90
Resolution: 17500
Column name: Acquity BEH C18 1.7um, 2.1x150mm (Waters)
Retention time: 13.283 min
Base peak: 165.0193
Precursor m/z: 165.0193
Precursor type: [M-H]-
Precursor intensity: 7115766.395752
m/z	relative intensity	assigned
75.024	413	C6H3-
93.0348	84	C6H5O-
108.0217	76	C6H4O2-
121.0295	999	C7H5O2-
