Mass spectrum: 3-Hydroxyfluorene; LC-ESI-QFT; MS2; CE: 90; R=17500; [M-H]-
Name: 3-Hydroxyfluorene
Name: 9H-fluoren-3-ol
Formula: C13H10O
Exact mass: 182.0732
SMILES: OC1=CC2=C(CC3=CC=CC=C23)C=C1
InChI: InChI=1S/C13H10O/c14-11-6-5-10-7-9-3-1-2-4-12(9)13(10)8-11/h1-6,8,14H,7H2
Instrument: Q Exactive Orbitrap (Thermo Scientific)
Instrument type: LC-ESI-QFT
Ms type: MS2
Ion mode: NEGATIVE
Ionization: ESI
Fragmentation mode: HCD
Collision energy: 90
Resolution: 17500
Column name: Acquity BEH C18 1.7um, 2.1x150mm (Waters)
Retention time: 17.661 min
Base peak: 317.1618
Precursor m/z: 181.0659
Precursor type: [M-H]-
Precursor intensity: 1734664.230469
m/z	relative intensity	assigned
152.0631	56	C12H8-
153.0715	22	C12H9-
180.0582	999	C13H8O-
181.066	141	C13H9O-
