Mass spectrum: Phenobarbital; LC-ESI-QFT; MS2; CE: 45; R=17500; [M+H]+
Name: Phenobarbital
Name: 5-ethyl-5-phenyl-1,3-diazinane-2,4,6-trione
Formula: C12H12N2O3
Exact mass: 232.0848
SMILES: CCC1(C(=O)NC(O)=NC1=O)c1ccccc1
InChI: InChI=1S/C12H12N2O3/c1-2-12(8-6-4-3-5-7-8)9(15)13-11(17)14-10(12)16/h3-7H,2H2,1H3,(H2,13,14,15,16,17)
Instrument: Q Exactive Orbitrap (Thermo Scientific)
Instrument type: LC-ESI-QFT
Ms type: MS2
Ion mode: POSITIVE
Ionization: ESI
Fragmentation mode: HCD
Collision energy: 45
Resolution: 17500
Column name: Acquity BEH C18 1.7um, 2.1x150mm (Waters)
Retention time: 15.216 min
Base peak: 79.0212
Precursor m/z: 233.0921
Precursor type: [M+H]+
Precursor intensity: 5873179.46875
m/z	relative intensity	assigned
72.0443	4	C3H6NO+
131.0604	1	C8H7N2+
159.0553	10	C9H7N2O+
173.0222	1	C10H5O3+
174.091	1	C11H12NO+
187.0502	165	C10H7N2O2+
205.0609	342	C10H9N2O3+
215.0815	92	C12H11N2O2+
219.0765	17	C11H11N2O3+
233.0921	999	C12H13N2O3+
