Mass spectrum: Aloe-emodin; LC-ESI-QFT; MS2; CE: 15; R=17500; [M-H]-
Name: Aloe-emodin
Formula: C15H10O5
Exact mass: 270.0528
SMILES: OCC1=CC2=C(C(O)=C1)C(=O)C1=C(C=CC=C1O)C2=O
InChI: InChI=1S/C15H10O5/c16-6-7-4-9-13(11(18)5-7)15(20)12-8(14(9)19)2-1-3-10(12)17/h1-5,16-18H,6H2
Instrument: Q Exactive Orbitrap (Thermo Scientific)
Instrument type: LC-ESI-QFT
Ms type: MS2
Ion mode: NEGATIVE
Ionization: ESI
Fragmentation mode: HCD
Collision energy: 15
Resolution: 17500
Column name: Acquity BEH C18 1.7um, 2.1x150mm (Waters)
Retention time: 19.838 min
Base peak: 269.0455
Precursor m/z: 269.0455
Precursor type: [M-H]-
Precursor intensity: 68870988.46777
m/z	relative intensity	assigned
254.0217	1	C14H6O5-
269.0454	999	C15H9O5-
