Mass spectrum: 1,2-Diphenylethanone; LC-ESI-QFT; MS2; CE: 30; R=17500; [M+H]+
Name: 1,2-Diphenylethanone
Name: Deoxybenzoin
Formula: C14H12O
Exact mass: 196.0888
SMILES: O=C(CC1=CC=CC=C1)C1=CC=CC=C1
InChI: InChI=1S/C14H12O/c15-14(13-9-5-2-6-10-13)11-12-7-3-1-4-8-12/h1-10H,11H2
Instrument: Q Exactive Orbitrap (Thermo Scientific)
Instrument type: LC-ESI-QFT
Ms type: MS2
Ion mode: POSITIVE
Ionization: ESI
Fragmentation mode: HCD
Collision energy: 30
Resolution: 17500
Column name: Acquity BEH C18 1.7um, 2.1x150mm (Waters)
Retention time: 18.311 min
Base peak: 79.0211
Precursor m/z: 197.0961
Precursor type: [M+H]+
Precursor intensity: 1282854.078125
m/z	relative intensity	assigned
53.0388	2	C4H5+
57.0701	2	C4H9+
77.0387	4	C6H5+
91.0543	3	C7H7+
95.0492	6	C6H7O+
105.0336	999	C7H5O+
119.0493	380	C8H7O+
197.0963	403	C14H13O+
