Mass spectrum: 2,2-Dimethyl-2,3-dihydro-1-benzofuran-7-amine; LC-ESI-QFT; MS2; CE: 75; R=17500; [M+H]+
Name: 2,2-Dimethyl-2,3-dihydro-1-benzofuran-7-amine
Name: 2,2-dimethyl-3H-1-benzofuran-7-amine
Formula: C10H13NO
Exact mass: 163.0997
SMILES: CC1(C)CC2=C(O1)C(N)=CC=C2
InChI: InChI=1S/C10H13NO/c1-10(2)6-7-4-3-5-8(11)9(7)12-10/h3-5H,6,11H2,1-2H3
Instrument: Q Exactive Orbitrap (Thermo Scientific)
Instrument type: LC-ESI-QFT
Ms type: MS2
Ion mode: POSITIVE
Ionization: ESI
Fragmentation mode: HCD
Collision energy: 75
Resolution: 17500
Column name: Acquity BEH C18 1.7um, 2.1x150mm (Waters)
Retention time: 14.381 min
Base peak: 79.0211
Precursor m/z: 164.107
Precursor type: [M+H]+
Precursor intensity: 17779009.625
m/z	relative intensity	assigned
53.0387	1	C4H5+
67.0541	2	C5H7+
77.0386	1	C6H5+
79.0542	17	C6H7+
80.0495	1	C5H6N+
81.0699	1	C6H9+
91.0543	2	C7H7+
94.0652	7	C6H8N+
95.0492	4	C6H7O+
95.0855	7	C7H11+
103.0543	10	C8H7+
105.07	102	C8H9+
106.0652	45	C7H8N+
107.0729	999	C7H9N+
108.057	4	C7H8O+
109.0523	4	C6H7NO+
120.0809	2	C8H10N+
121.0885	1	C8H11N+
122.0964	583	C8H12N+
123.0804	13	C8H11O+
131.073	3	C9H9N+
146.0965	3	C10H12N+
164.107	6	C10H14NO+
