Mass spectrum: cis-1,2,3,6-Tetrahydrophthalimide; LC-ESI-QFT; MS2; CE: 15; R=17500; [M+H]+
Name: cis-1,2,3,6-Tetrahydrophthalimide
Name: (3aR,7aS)-3a,4,7,7a-tetrahydroisoindole-1,3-dione
Formula: C8H9NO2
Exact mass: 151.0633
SMILES: O=C1NC(=O)[C@@H]2CC=CC[C@H]12
InChI: InChI=1S/C8H9NO2/c10-7-5-3-1-2-4-6(5)8(11)9-7/h1-2,5-6H,3-4H2,(H,9,10,11)/t5-,6+
Instrument: Q Exactive Orbitrap (Thermo Scientific)
Instrument type: LC-ESI-QFT
Ms type: MS2
Ion mode: POSITIVE
Ionization: ESI
Fragmentation mode: HCD
Collision energy: 15
Resolution: 17500
Column name: Acquity BEH C18 1.7um, 2.1x150mm (Waters)
Retention time: 8.060 min
Base peak: 79.0211
Precursor m/z: 152.0706
Precursor type: [M+H]+
Precursor intensity: 4307448
m/z	relative intensity	assigned
65.0386	1	C5H5+
82.0651	1	C5H8N+
92.0495	4	C6H6N+
93.0335	2	C6H5O+
110.06	528	C6H8NO+
111.0442	7	C6H7O2+
134.0599	14	C8H8NO+
152.0706	999	C8H10NO2+
