Mass spectrum: Diethyl phthalate; LC-ESI-QFT; MS2; CE: 75; R=17500; [M-H]-
Name: Diethyl phthalate
Name: diethyl benzene-1,2-dicarboxylate
Formula: C12H14O4
Exact mass: 222.0892
SMILES: CCOC(=O)C1=CC=CC=C1C(=O)OCC
InChI: InChI=1S/C12H14O4/c1-3-15-11(13)9-7-5-6-8-10(9)12(14)16-4-2/h5-8H,3-4H2,1-2H3
Instrument: Q Exactive Orbitrap (Thermo Scientific)
Instrument type: LC-ESI-QFT
Ms type: MS2
Ion mode: NEGATIVE
Ionization: ESI
Fragmentation mode: HCD
Collision energy: 75
Resolution: 17500
Column name: Acquity BEH C18 1.7um, 2.1x150mm (Waters)
Retention time: 16.054 min
Base peak: 221.0818
Precursor m/z: 221.0819
Precursor type: [M-H]-
Precursor intensity: 33805282.03027
m/z	relative intensity	assigned
57.0346	187	C3H5O-
65.0396	5	C5H5-
73.0659	22	C4H9O-
75.024	999	C6H3-
77.0395	4	C6H5-
93.0346	84	C6H5O-
103.0189	133	C7H3O-
108.0217	5	C6H4O2-
119.0138	78	C7H3O2-
121.0295	776	C7H5O2-
147.0088	117	C8H3O3-
165.0193	14	C8H5O4-
