Mass spectrum: Sulfathiazole; LC-ESI-QFT; MS2; CE: 60; R=17500; [M-H]-
Name: Sulfathiazole
Name: 4-amino-N-(1,3-thiazol-2-yl)benzenesulfonamide
Formula: C9H9N3O2S2
Exact mass: 255.0136
SMILES: NC1=CC=C(C=C1)S(=O)(=O)NC1=NC=CS1
InChI: InChI=1S/C9H9N3O2S2/c10-7-1-3-8(4-2-7)16(13,14)12-9-11-5-6-15-9/h1-6H,10H2,(H,11,12)
Instrument: Q Exactive Orbitrap (Thermo Scientific)
Instrument type: LC-ESI-QFT
Ms type: MS2
Ion mode: NEGATIVE
Ionization: ESI
Fragmentation mode: HCD
Collision energy: 60
Resolution: 17500
Column name: Acquity BEH C18 1.7um, 2.1x150mm (Waters)
Retention time: 9.323 min
Base peak: 254.0063
Precursor m/z: 254.0063
Precursor type: [M-H]-
Precursor intensity: 4629804.892578
m/z	relative intensity	assigned
57.9758	2	CNS-
63.9625	673	O2S-
65.0145	210	C3HN2-
70.9835	48	C2HNS-
92.0506	308	C6H6N-
97.9945	999	C3H2N2S-
108.0454	23	C6H6NO-
113.9892	2	C3H2N2OS-
156.0125	590	C6H6NO2S-
208.9832	6	C8H5N2OS2-
