Mass spectrum: 2,6-Di(butan-2-yl)phenol; LC-ESI-QFT; MS2; CE: 60; R=17500; [M-H]-
Name: 2,6-Di(butan-2-yl)phenol
Name: 2,6-Di-sec-butylphenol
Formula: C14H22O
Exact mass: 206.1671
SMILES: CCC(C)C1=CC=CC(C(C)CC)=C1O
InChI: InChI=1S/C14H22O/c1-5-10(3)12-8-7-9-13(14(12)15)11(4)6-2/h7-11,15H,5-6H2,1-4H3
Instrument: Q Exactive Orbitrap (Thermo Scientific)
Instrument type: LC-ESI-QFT
Ms type: MS2
Ion mode: NEGATIVE
Ionization: ESI
Fragmentation mode: HCD
Collision energy: 60
Resolution: 17500
Column name: Acquity BEH C18 1.7um, 2.1x150mm (Waters)
Retention time: 19.674 min
Base peak: 205.1597
Precursor m/z: 205.1598
Precursor type: [M-H]-
Precursor intensity: 16291142.12354
m/z	relative intensity	assigned
149.0972	7	C10H13O-
189.1285	112	C13H17O-
205.1597	999	C14H21O-
