Mass spectrum: 1,10-Phenanthroline; LC-ESI-QFT; MS2; CE: 90; R=17500; [M+H]+
Name: 1,10-Phenanthroline
Formula: C12H8N2
Exact mass: 180.0687
SMILES: C1=CC2=C(N=C1)C1=C(C=CC=N1)C=C2
InChI: InChI=1S/C12H8N2/c1-3-9-5-6-10-4-2-8-14-12(10)11(9)13-7-1/h1-8H
Instrument: Q Exactive Orbitrap (Thermo Scientific)
Instrument type: LC-ESI-QFT
Ms type: MS2
Ion mode: POSITIVE
Ionization: ESI
Fragmentation mode: HCD
Collision energy: 90
Resolution: 17500
Column name: Acquity BEH C18 1.7um, 2.1x150mm (Waters)
Retention time: 9.890 min
Base peak: 79.0211
Precursor m/z: 181.076
Precursor type: [M+H]+
Precursor intensity: 5815268.46875
m/z	relative intensity	assigned
65.0385	3	C5H5+
97.0077	1	C8H+
103.0542	4	C8H7+
127.0542	33	C10H7+
128.0494	15	C9H6N+
141.0572	3	C10H7N+
152.0494	1	C11H6N+
153.0574	6	C11H7N+
154.065	323	C11H8N+
155.0602	42	C10H7N2+
179.0604	63	C12H7N2+
180.0682	12	C12H8N2+
181.0759	999	C12H9N2+
