Mass spectrum: Diethyl phthalate; LC-ESI-QFT; MS2; CE: 90; R=17500; [M+H]+
Name: Diethyl phthalate
Name: diethyl benzene-1,2-dicarboxylate
Formula: C12H14O4
Exact mass: 222.0892
SMILES: CCOC(=O)C1=CC=CC=C1C(=O)OCC
InChI: InChI=1S/C12H14O4/c1-3-15-11(13)9-7-5-6-8-10(9)12(14)16-4-2/h5-8H,3-4H2,1-2H3
Instrument: Q Exactive Orbitrap (Thermo Scientific)
Instrument type: LC-ESI-QFT
Ms type: MS2
Ion mode: POSITIVE
Ionization: ESI
Fragmentation mode: HCD
Collision energy: 90
Resolution: 17500
Column name: Acquity BEH C18 1.7um, 2.1x150mm (Waters)
Retention time: 16.637 min
Base peak: 79.0211
Precursor m/z: 223.0965
Precursor type: [M+H]+
Precursor intensity: 1363544.125
m/z	relative intensity	assigned
53.0385	447	C4H5+
95.0493	999	C6H7O+
103.0543	567	C8H7+
126.0109	624	C9H2O+
152.0624	514	C12H8+
