Mass spectrum: Diethyl phthalate; LC-ESI-QFT; MS2; CE: 60; R=17500; [M+H]+
Name: Diethyl phthalate
Name: diethyl benzene-1,2-dicarboxylate
Formula: C12H14O4
Exact mass: 222.0892
SMILES: CCOC(=O)C1=CC=CC=C1C(=O)OCC
InChI: InChI=1S/C12H14O4/c1-3-15-11(13)9-7-5-6-8-10(9)12(14)16-4-2/h5-8H,3-4H2,1-2H3
Instrument: Q Exactive Orbitrap (Thermo Scientific)
Instrument type: LC-ESI-QFT
Ms type: MS2
Ion mode: POSITIVE
Ionization: ESI
Fragmentation mode: HCD
Collision energy: 60
Resolution: 17500
Column name: Acquity BEH C18 1.7um, 2.1x150mm (Waters)
Retention time: 16.637 min
Base peak: 79.0211
Precursor m/z: 223.0965
Precursor type: [M+H]+
Precursor intensity: 2301905.5
m/z	relative intensity	assigned
69.0701	323	C5H9+
92.0262	513	C6H4O+
103.0543	232	C8H7+
121.0285	604	C7H5O2+
126.0104	999	C9H2O+
152.0624	185	C12H8+
