Mass spectrum: Sulfathiazole; LC-ESI-QFT; MS2; CE: 60; R=17500; [M+H]+
Name: Sulfathiazole
Name: 4-amino-N-(1,3-thiazol-2-yl)benzenesulfonamide
Formula: C9H9N3O2S2
Exact mass: 255.0136
SMILES: NC1=CC=C(C=C1)S(=O)(=O)NC1=NC=CS1
InChI: InChI=1S/C9H9N3O2S2/c10-7-1-3-8(4-2-7)16(13,14)12-9-11-5-6-15-9/h1-6H,10H2,(H,11,12)
Instrument: Q Exactive Orbitrap (Thermo Scientific)
Instrument type: LC-ESI-QFT
Ms type: MS2
Ion mode: POSITIVE
Ionization: ESI
Fragmentation mode: HCD
Collision energy: 60
Resolution: 17500
Column name: Acquity BEH C18 1.7um, 2.1x150mm (Waters)
Retention time: 14.046 min
Base peak: 79.0211
Precursor m/z: 256.0209
Precursor type: [M+H]+
Precursor intensity: 29755634.6875
m/z	relative intensity	assigned
58.995	1	C2H3S+
59.9903	72	CH2NS+
61.0106	541	C2H5S+
119.9936	1	C3H6NS2+
133.9593	1	C2H2N2OS2+
139.9565	999	H2N3O2S2+
140.9766	1	C4HN2O2S+
155.9336	1	C5O2S2+
157.9672	5	C8NOS+
167.9879	33	C5H2N3O2S+
171.9827	3	C9H2NOS+
196.019	1	C7H6N3O2S+
199.96	20	C5H2N3O2S2+
227.9913	1	C7H6N3O2S2+
