Mass spectrum: 1,2-Diphenylethanone; LC-ESI-QFT; MS2; CE: 60; R=17500; [M+H]+
Name: 1,2-Diphenylethanone
Name: Deoxybenzoin
Formula: C14H12O
Exact mass: 196.0888
SMILES: O=C(CC1=CC=CC=C1)C1=CC=CC=C1
InChI: InChI=1S/C14H12O/c15-14(13-9-5-2-6-10-13)11-12-7-3-1-4-8-12/h1-10H,11H2
Instrument: Q Exactive Orbitrap (Thermo Scientific)
Instrument type: LC-ESI-QFT
Ms type: MS2
Ion mode: POSITIVE
Ionization: ESI
Fragmentation mode: HCD
Collision energy: 60
Resolution: 17500
Column name: Acquity BEH C18 1.7um, 2.1x150mm (Waters)
Retention time: 18.311 min
Base peak: 79.0211
Precursor m/z: 197.0961
Precursor type: [M+H]+
Precursor intensity: 2043603.1875
m/z	relative intensity	assigned
50.0152	2	C4H2+
51.023	4	C4H3+
53.0386	61	C4H5+
55.018	5	C3H3O+
57.0698	1	C4H9+
65.0386	10	C5H5+
67.0543	6	C5H7+
77.0386	18	C6H5+
81.0336	6	C5H5O+
81.07	2	C6H9+
91.0543	82	C7H7+
94.0414	7	C6H6O+
95.0492	176	C6H7O+
105.0336	999	C7H5O+
109.0649	50	C7H9O+
119.0493	393	C8H7O+
197.0964	3	C14H13O+
