Mass spectrum: (1,1-Dimethylethyl)urea; LC-ESI-QFT; MS2; CE: 15; R=17500; [M+H]+
Name: (1,1-Dimethylethyl)urea
Name: tert-butylurea
Formula: C5H12N2O
Exact mass: 116.0950
SMILES: CC(C)(C)NC(N)=O
InChI: InChI=1S/C5H12N2O/c1-5(2,3)7-4(6)8/h1-3H3,(H3,6,7,8)
Instrument: Q Exactive Orbitrap (Thermo Scientific)
Instrument type: LC-ESI-QFT
Ms type: MS2
Ion mode: POSITIVE
Ionization: ESI
Fragmentation mode: HCD
Collision energy: 15
Resolution: 17500
Column name: Acquity BEH C18 1.7um, 2.1x150mm (Waters)
Retention time: 10.169 min
Base peak: 79.0211
Precursor m/z: 117.1022
Precursor type: [M+H]+
Precursor intensity: 11497157.0625
m/z	relative intensity	assigned
53.0022	10	C3HO+
57.0699	751	C4H9+
61.0396	517	CH5N2O+
72.0442	2	C3H6NO+
74.0964	480	C4H12N+
100.0755	4	C5H10NO+
117.1022	999	C5H13N2O+
