Mass spectrum: (1,1-Dimethylethyl)urea; LC-ESI-QFT; MS2; CE: 45; R=17500; [M+H]+
Name: (1,1-Dimethylethyl)urea
Name: tert-butylurea
Formula: C5H12N2O
Exact mass: 116.0950
SMILES: CC(C)(C)NC(N)=O
InChI: InChI=1S/C5H12N2O/c1-5(2,3)7-4(6)8/h1-3H3,(H3,6,7,8)
Instrument: Q Exactive Orbitrap (Thermo Scientific)
Instrument type: LC-ESI-QFT
Ms type: MS2
Ion mode: POSITIVE
Ionization: ESI
Fragmentation mode: HCD
Collision energy: 45
Resolution: 17500
Column name: Acquity BEH C18 1.7um, 2.1x150mm (Waters)
Retention time: 10.169 min
Base peak: 79.0211
Precursor m/z: 117.1022
Precursor type: [M+H]+
Precursor intensity: 9645672.375
m/z	relative intensity	assigned
53.0023	16	C3HO+
57.0699	947	C4H9+
61.0397	545	CH5N2O+
72.0444	2	C3H6NO+
74.0964	540	C4H12N+
100.0756	4	C5H10NO+
117.1023	999	C5H13N2O+
