Mass spectrum: cis-1,2,3,6-Tetrahydrophthalimide; LC-ESI-QFT; MS2; CE: 30; R=17500; [M-H]-
Name: cis-1,2,3,6-Tetrahydrophthalimide
Name: (3aR,7aS)-3a,4,7,7a-tetrahydroisoindole-1,3-dione
Formula: C8H9NO2
Exact mass: 151.0633
SMILES: O=C1NC(=O)[C@@H]2CC=CC[C@H]12
InChI: InChI=1S/C8H9NO2/c10-7-5-3-1-2-4-6(5)8(11)9-7/h1-2,5-6H,3-4H2,(H,9,10,11)/t5-,6+
Instrument: Q Exactive Orbitrap (Thermo Scientific)
Instrument type: LC-ESI-QFT
Ms type: MS2
Ion mode: NEGATIVE
Ionization: ESI
Fragmentation mode: HCD
Collision energy: 30
Resolution: 17500
Column name: Acquity BEH C18 1.7um, 2.1x150mm (Waters)
Retention time: 10.804 min
Base peak: 108.0455
Precursor m/z: 150.0561
Precursor type: [M-H]-
Precursor intensity: 5293226.397949
m/z	relative intensity	assigned
107.0376	2	C6H5NO-
108.0455	999	C6H6NO-
132.0453	4	C8H6NO-
150.056	47	C8H8NO2-
