Mass spectrum: Prednisolone; LC-ESI-QFT; MS2; CE: 15; R=17500; [M-H]-
Name: Prednisolone
Name: (8S,9S,10R,11S,13S,14S,17R)-11,17-dihydroxy-17-(2-hydroxyacetyl)-10,13-dimethyl-7,8,9,11,12,14,15,16-octahydro-6H-cyclopenta[a]phenanthren-3-one
Formula: C21H28O5
Exact mass: 360.1937
SMILES: C[C@]12C[C@H](O)[C@H]3[C@@H](CCC4=CC(=O)C=C[C@]34C)[C@@H]1CC[C@]2(O)C(=O)CO
InChI: InChI=1S/C21H28O5/c1-19-7-5-13(23)9-12(19)3-4-14-15-6-8-21(26,17(25)11-22)20(15,2)10-16(24)18(14)19/h5,7,9,14-16,18,22,24,26H,3-4,6,8,10-11H2,1-2H3/t14-,15-,16-,18+,19-,20-,21-/m0/s1
Instrument: Q Exactive Orbitrap (Thermo Scientific)
Instrument type: LC-ESI-QFT
Ms type: MS2
Ion mode: NEGATIVE
Ionization: ESI
Fragmentation mode: HCD
Collision energy: 15
Resolution: 17500
Column name: Acquity BEH C18 1.7um, 2.1x150mm (Waters)
Retention time: 15.523 min
Base peak: 405.1917
Precursor m/z: 359.1864
Precursor type: [M-H]-
Precursor intensity: 1229682.089844
m/z	relative intensity	assigned
123.045	2	C7H7O2-
125.0609	17	C7H9O2-
203.1076	7	C13H15O2-
299.1653	29	C19H23O3-
301.1809	340	C19H25O3-
311.1651	5	C20H23O3-
329.1758	999	C20H25O4-
341.1757	46	C21H25O4-
