Mass spectrum: N-(4-Ethoxyphenyl)-3-oxobutanamide; LC-ESI-QFT; MS2; CE: 60; R=17500; [M-H]-
Name: N-(4-Ethoxyphenyl)-3-oxobutanamide
Formula: C12H15NO3
Exact mass: 221.1052
SMILES: CCOC1=CC=C(NC(=O)CC(C)=O)C=C1
InChI: InChI=1S/C12H15NO3/c1-3-16-11-6-4-10(5-7-11)13-12(15)8-9(2)14/h4-7H,3,8H2,1-2H3,(H,13,15)
Instrument: Q Exactive Orbitrap (Thermo Scientific)
Instrument type: LC-ESI-QFT
Ms type: MS2
Ion mode: NEGATIVE
Ionization: ESI
Fragmentation mode: HCD
Collision energy: 60
Resolution: 17500
Column name: Acquity BEH C18 1.7um, 2.1x150mm (Waters)
Retention time: 14.395 min
Base peak: 166.0145
Precursor m/z: 220.0979
Precursor type: [M-H]-
Precursor intensity: 4956591.976807
m/z	relative intensity	assigned
57.0345	52	C3H5O-
83.0139	870	C4H3O2-
107.0377	999	C6H5NO-
136.0767	2	C8H10NO-
