Mass spectrum: 5-Methoxypsoralen; LC-ESI-QFT; MS2; CE: 75; R=17500; [M+H]+
Name: 5-Methoxypsoralen
Name: Bergapten
Name: 4-methoxyfuro[3,2-g]chromen-7-one
Formula: C12H8O4
Exact mass: 216.0423
SMILES: COC1=C2C=COC2=CC2=C1C=CC(=O)O2
InChI: InChI=1S/C12H8O4/c1-14-12-7-2-3-11(13)16-10(7)6-9-8(12)4-5-15-9/h2-6H,1H3
Instrument: Q Exactive Orbitrap (Thermo Scientific)
Instrument type: LC-ESI-QFT
Ms type: MS2
Ion mode: POSITIVE
Ionization: ESI
Fragmentation mode: HCD
Collision energy: 75
Resolution: 17500
Column name: Acquity BEH C18 1.7um, 2.1x150mm (Waters)
Retention time: 15.198 min
Base peak: 79.0212
Precursor m/z: 217.0495
Precursor type: [M+H]+
Precursor intensity: 7797882.53125
m/z	relative intensity	assigned
53.0386	4	C4H5+
55.0179	3	C3H3O+
55.0541	3	C4H7+
63.023	2	C5H3+
65.0385	5	C5H5+
66.0463	22	C5H6+
75.0229	1	C6H3+
77.0384	2	C6H5+
78.0462	1	C6H6+
79.0542	19	C6H7+
81.0334	1	C5H5O+
83.0489	3	C5H7O+
89.0385	40	C7H5+
90.0464	97	C7H6+
91.0542	20	C7H7+
92.0255	3	C6H4O+
94.0412	4	C6H6O+
95.0491	10	C6H7O+
97.0076	10	C8H+
101.0385	4	C8H5+
102.0463	12	C8H6+
103.0541	23	C8H7+
104.0619	3	C8H8+
105.0336	2	C7H5O+
105.0698	28	C8H9+
111.0232	2	C9H3+
115.0542	83	C9H7+
116.062	2	C9H8+
117.0334	1	C8H5O+
117.0697	6	C9H9+
118.0412	223	C8H6O+
119.0491	2	C8H7O+
121.0282	1	C7H5O2+
122.0361	2	C7H6O2+
129.0334	28	C9H5O+
130.0412	6	C9H6O+
131.0491	79	C9H7O+
132.0206	3	C8H4O2+
132.0568	4	C9H8O+
133.0285	4	C8H5O2+
133.0648	7	C9H9O+
134.0362	1	C8H6O2+
143.0493	3	C10H7O+
144.0569	1	C10H8O+
145.0283	80	C9H5O2+
145.0646	4	C10H9O+
146.0361	185	C9H6O2+
147.0442	1	C9H7O2+
157.0284	34	C10H5O2+
158.0361	17	C10H6O2+
159.044	1	C10H7O2+
161.0596	292	C10H9O2+
162.0309	5	C9H6O3+
173.0232	3	C10H5O3+
173.0594	2	C11H9O2+
174.031	999	C10H6O3+
178.0259	6	C9H6O4+
185.0231	13	C11H5O3+
189.0543	12	C11H9O3+
192.0412	1	C10H8O4+
202.0259	325	C11H6O4+
217.0494	11	C12H9O4+
