Mass spectrum: 4-Methoxy-2-methylaniline; LC-ESI-QFT; MS2; CE: 90; R=17500; [M+H]+
Name: 4-Methoxy-2-methylaniline
Formula: C8H11NO
Exact mass: 137.0841
SMILES: COC1=CC(C)=C(N)C=C1
InChI: InChI=1S/C8H11NO/c1-6-5-7(10-2)3-4-8(6)9/h3-5H,9H2,1-2H3
Instrument: Q Exactive Orbitrap (Thermo Scientific)
Instrument type: LC-ESI-QFT
Ms type: MS2
Ion mode: POSITIVE
Ionization: ESI
Fragmentation mode: HCD
Collision energy: 90
Resolution: 17500
Column name: Acquity BEH C18 1.7um, 2.1x150mm (Waters)
Retention time: 9.936 min
Base peak: 79.0211
Precursor m/z: 138.0913
Precursor type: [M+H]+
Precursor intensity: 9560406.828125
m/z	relative intensity	assigned
51.0229	3	C4H3+
53.0386	75	C4H5+
63.0229	5	C5H3+
65.0385	215	C5H5+
66.0464	6	C5H6+
67.0418	2	C4H5N+
67.0542	5	C5H7+
77.0385	41	C6H5+
78.0464	365	C6H6+
79.0542	101	C6H7+
80.0494	159	C5H6N+
81.0333	8	C5H5O+
86.0036	7	C6N+
89.0385	8	C7H5+
91.0542	518	C7H7+
92.0494	3	C6H6N+
93.0573	81	C6H7N+
93.07	4	C7H9+
94.0651	326	C6H8N+
95.0491	182	C6H7O+
95.0729	148	C6H9N+
96.0444	5	C5H6NO+
104.0494	5	C7H6N+
105.0336	19	C7H5O+
106.0414	61	C7H6O+
106.0651	345	C7H8N+
107.0729	366	C7H9N+
108.0443	999	C6H6NO+
121.0648	100	C8H9O+
122.06	109	C7H8NO+
123.0678	493	C7H9NO+
137.0834	11	C8H11NO+
138.0913	34	C8H12NO+
