Mass spectrum: 5-Methoxypsoralen; LC-ESI-QFT; MS2; CE: 90; R=17500; [M+H]+
Name: 5-Methoxypsoralen
Name: Bergapten
Name: 4-methoxyfuro[3,2-g]chromen-7-one
Formula: C12H8O4
Exact mass: 216.0423
SMILES: COC1=C2C=COC2=CC2=C1C=CC(=O)O2
InChI: InChI=1S/C12H8O4/c1-14-12-7-2-3-11(13)16-10(7)6-9-8(12)4-5-15-9/h2-6H,1H3
Instrument: Q Exactive Orbitrap (Thermo Scientific)
Instrument type: LC-ESI-QFT
Ms type: MS2
Ion mode: POSITIVE
Ionization: ESI
Fragmentation mode: HCD
Collision energy: 90
Resolution: 17500
Column name: Acquity BEH C18 1.7um, 2.1x150mm (Waters)
Retention time: 15.198 min
Base peak: 79.0212
Precursor m/z: 217.0495
Precursor type: [M+H]+
Precursor intensity: 11578901.1875
m/z	relative intensity	assigned
51.023	1	C4H3+
53.0386	10	C4H5+
55.0177	4	C3H3O+
55.0542	3	C4H7+
63.0228	8	C5H3+
64.0306	5	C5H4+
65.0385	18	C5H5+
66.0464	89	C5H6+
68.0256	7	C4H4O+
75.0228	8	C6H3+
77.0385	8	C6H5+
78.0463	3	C6H6+
79.0542	27	C6H7+
81.0335	4	C5H5O+
83.0491	1	C5H7O+
89.0385	336	C7H5+
90.0464	491	C7H6+
91.0542	25	C7H7+
92.0257	16	C6H4O+
93.0336	3	C6H5O+
94.0413	13	C6H6O+
95.0491	34	C6H7O+
97.0076	17	C8H+
101.0386	12	C8H5+
102.0464	30	C8H6+
103.0542	45	C8H7+
104.0621	6	C8H8+
105.0335	5	C7H5O+
105.0699	24	C8H9+
106.0413	1	C7H6O+
111.0232	3	C9H3+
115.0542	85	C9H7+
116.062	3	C9H8+
117.0335	17	C8H5O+
117.0697	2	C9H9+
118.0413	543	C8H6O+
119.0491	2	C8H7O+
121.0284	4	C7H5O2+
122.0362	9	C7H6O2+
129.0335	45	C9H5O+
130.0411	5	C9H6O+
131.0491	82	C9H7O+
132.0205	5	C8H4O2+
132.0569	3	C9H8O+
133.0283	3	C8H5O2+
133.0648	3	C9H9O+
134.0359	1	C8H6O2+
135.0439	8	C8H7O2+
143.0487	1	C10H7O+
144.0566	1	C10H8O+
145.0284	234	C9H5O2+
146.0362	207	C9H6O2+
147.044	2	C9H7O2+
150.031	2	C8H6O3+
157.0284	19	C10H5O2+
158.0361	9	C10H6O2+
159.0438	1	C10H7O2+
161.0596	151	C10H9O2+
162.0311	6	C9H6O3+
173.0235	4	C10H5O3+
174.0311	999	C10H6O3+
178.026	12	C9H6O4+
185.023	2	C11H5O3+
189.0543	2	C11H9O3+
202.026	88	C11H6O4+
