Mass spectrum: N-(4-Ethoxyphenyl)-3-oxobutanamide; LC-ESI-QFT; MS2; CE: 75; R=17500; [M+H]+
Name: N-(4-Ethoxyphenyl)-3-oxobutanamide
Formula: C12H15NO3
Exact mass: 221.1052
SMILES: CCOC1=CC=C(NC(=O)CC(C)=O)C=C1
InChI: InChI=1S/C12H15NO3/c1-3-16-11-6-4-10(5-7-11)13-12(15)8-9(2)14/h4-7H,3,8H2,1-2H3,(H,13,15)
Instrument: Q Exactive Orbitrap (Thermo Scientific)
Instrument type: LC-ESI-QFT
Ms type: MS2
Ion mode: POSITIVE
Ionization: ESI
Fragmentation mode: HCD
Collision energy: 75
Resolution: 17500
Column name: Acquity BEH C18 1.7um, 2.1x150mm (Waters)
Retention time: 15.231 min
Base peak: 79.0211
Precursor m/z: 222.1125
Precursor type: [M+H]+
Precursor intensity: 8701803.09375
m/z	relative intensity	assigned
51.0231	2	C4H3+
53.0023	2	C3HO+
53.0386	14	C4H5+
55.0179	8	C3H3O+
55.0543	157	C4H7+
58.0288	41	C2H4NO+
65.0386	13	C5H5+
67.0542	49	C5H7+
77.0385	11	C6H5+
79.0542	3	C6H7+
81.0335	4	C5H5O+
91.0543	118	C7H7+
93.0335	3	C6H5O+
94.0414	1	C6H6O+
95.0492	103	C6H7O+
103.0543	4	C8H7+
104.0621	2	C8H8+
105.0335	25	C7H5O+
107.0492	8	C7H7O+
109.0283	6	C6H5O2+
109.0649	2	C7H9O+
110.0361	3	C6H6O2+
110.06	1	C6H8NO+
111.0442	17	C6H7O2+
117.07	7	C9H9+
119.0492	19	C8H7O+
119.0856	23	C9H11+
123.0441	999	C7H7O2+
128.0617	1	C10H8+
129.0698	1	C10H9+
131.0493	1	C9H7O+
132.0571	5	C9H8O+
137.0598	41	C8H9O2+
145.0647	1	C10H9O+
147.0806	9	C10H11O+
165.0909	6	C10H13O2+
