Mass spectrum: 4-Methoxy-2-methylaniline; LC-ESI-QFT; MS2; CE: 45; R=17500; [M+H]+
Name: 4-Methoxy-2-methylaniline
Formula: C8H11NO
Exact mass: 137.0841
SMILES: COC1=CC(C)=C(N)C=C1
InChI: InChI=1S/C8H11NO/c1-6-5-7(10-2)3-4-8(6)9/h3-5H,9H2,1-2H3
Instrument: Q Exactive Orbitrap (Thermo Scientific)
Instrument type: LC-ESI-QFT
Ms type: MS2
Ion mode: POSITIVE
Ionization: ESI
Fragmentation mode: HCD
Collision energy: 45
Resolution: 17500
Column name: Acquity BEH C18 1.7um, 2.1x150mm (Waters)
Retention time: 9.936 min
Base peak: 79.0211
Precursor m/z: 138.0913
Precursor type: [M+H]+
Precursor intensity: 15222563.6875
m/z	relative intensity	assigned
78.0463	4	C6H6+
79.0542	14	C6H7+
80.0494	1	C5H6N+
94.0651	4	C6H8N+
95.0491	1	C6H7O+
95.073	2	C6H9N+
106.0651	95	C7H8N+
107.0729	17	C7H9N+
108.0445	2	C6H6NO+
108.0808	1	C7H10N+
121.0648	4	C8H9O+
122.0602	18	C7H8NO+
123.0678	999	C7H9NO+
138.0913	408	C8H12NO+
