Mass spectrum: 8-Methoxypsoralen; LC-ESI-QFT; MS2; CE: 45; R=17500; [M+H]+
Name: 8-Methoxypsoralen
Name: Methoxsalen
Name: 9-methoxyfuro[3,2-g]chromen-7-one
Formula: C12H8O4
Exact mass: 216.0423
SMILES: COC1=C2OC(=O)C=CC2=CC2=C1OC=C2
InChI: InChI=1S/C12H8O4/c1-14-12-10-8(4-5-15-10)6-7-2-3-9(13)16-11(7)12/h2-6H,1H3
Instrument: Q Exactive Orbitrap (Thermo Scientific)
Instrument type: LC-ESI-QFT
Ms type: MS2
Ion mode: POSITIVE
Ionization: ESI
Fragmentation mode: HCD
Collision energy: 45
Resolution: 17500
Column name: Acquity BEH C18 1.7um, 2.1x150mm (Waters)
Retention time: 15.198 min
Base peak: 79.0212
Precursor m/z: 217.0495
Precursor type: [M+H]+
Precursor intensity: 8867854
m/z	relative intensity	assigned
55.0541	1	C4H7+
83.0491	1	C5H7O+
89.0388	2	C7H5+
91.0542	7	C7H7+
103.0542	1	C8H7+
105.0334	6	C7H5O+
105.0699	6	C8H9+
111.0441	2	C6H7O2+
115.0542	48	C9H7+
117.0698	29	C9H9+
118.0413	3	C8H6O+
127.0538	1	C10H7+
129.0333	2	C9H5O+
130.0413	1	C9H6O+
131.0491	18	C9H7O+
133.0283	1	C8H5O2+
133.0647	8	C9H9O+
143.0491	9	C10H7O+
144.0571	1	C10H8O+
145.0648	19	C10H9O+
146.0362	8	C9H6O2+
147.0437	1	C9H7O2+
157.0283	13	C10H5O2+
158.0362	34	C10H6O2+
161.0596	332	C10H9O2+
162.0309	1	C9H6O3+
171.0439	2	C11H7O2+
173.0597	82	C11H9O2+
174.0311	130	C10H6O3+
185.0233	137	C11H5O3+
189.0545	137	C11H9O3+
201.0181	1	C11H5O4+
202.026	999	C11H6O4+
217.0494	910	C12H9O4+
