Mass spectrum: Carabersat; LC-ESI-QFT; MS2; CE: 45; R=17500; [M-H]-
Name: Carabersat
Name: N-[(3R,4S)-6-acetyl-3-hydroxy-2,2-dimethyl-3,4-dihydrochromen-4-yl]-4-fluorobenzamide
Formula: C20H20FNO4
Exact mass: 357.1376
SMILES: CC(=O)C1=CC2=C(OC(C)(C)[C@H](O)[C@H]2NC(=O)C2=CC=C(F)C=C2)C=C1
InChI: InChI=1S/C20H20FNO4/c1-11(23)13-6-9-16-15(10-13)17(18(24)20(2,3)26-16)22-19(25)12-4-7-14(21)8-5-12/h4-10,17-18,24H,1-3H3,(H,22,25)/t17-,18+/m0/s1
Instrument: Q Exactive Orbitrap (Thermo Scientific)
Instrument type: LC-ESI-QFT
Ms type: MS2
Ion mode: NEGATIVE
Ionization: ESI
Fragmentation mode: HCD
Collision energy: 45
Resolution: 17500
Column name: Acquity BEH C18 1.7um, 2.1x150mm (Waters)
Retention time: 15.695 min
Base peak: 356.1303
Precursor m/z: 356.1304
Precursor type: [M-H]-
Precursor intensity: 49214248.50586
m/z	relative intensity	assigned
81.0346	6	C5H5O-
92.0264	1	C6H4O-
93.0346	10	C6H5O-
95.0303	31	C6H4F-
108.0217	2	C6H4O2-
117.0221	3	C7H3NO-
118.0299	11	C7H4NO-
120.0255	4	C7H3FN-
123.0087	2	C6H3O3-
132.0456	3	C8H6NO-
133.0169	4	C7H3NO2-
135.0452	637	C8H7O2-
137.0408	326	C8H6FO-
138.0361	319	C7H5FNO-
139.0201	11	C7H4FO2-
139.0556	1	C11H7-
144.0458	2	C9H6NO-
147.0453	3	C9H7O2-
148.053	5	C9H8O2-
149.0408	1	C9H6FO-
149.0609	2	C9H9O2-
150.0362	3	C8H5FNO-
157.0662	2	C11H9O-
158.0613	5	C10H8NO-
159.0453	60	C10H7O2-
159.0613	9	C11H8F-
160.0404	999	C9H6NO2-
161.0409	13	C10H6FO-
161.0608	6	C10H9O2-
162.0363	14	C9H5FNO-
162.056	156	C9H8NO2-
163.0401	6	C9H7O3-
171.0815	1	C12H11O-
174.0562	6	C10H8NO2-
175.0402	7	C10H7O3-
175.0564	20	C11H8FO-
175.0762	2	C11H11O2-
176.0717	2	C10H10NO2-
177.0721	278	C11H10FO-
180.0425	4	C9H8O4-
189.0921	24	C12H13O2-
198.0488	1	C13H7FO-
199.0765	21	C13H11O2-
200.0718	2	C12H10NO2-
202.0672	2	C12H9FNO-
208.078	1	C11H11FNO2-
213.0721	3	C14H10FO-
217.0869	20	C13H13O3-
225.0721	2	C15H10FO-
238.0671	1	C15H9FNO-
241.0547	6	C14H8FNO2-
242.0618	6	C14H9FNO2-
244.042	1	C13H7FNO3-
252.0832	2	C16H11FNO-
253.0669	11	C16H10FO2-
256.0782	10	C15H11FNO2-
257.0618	14	C15H10FO3-
267.0706	1	C16H10FNO2-
268.0785	1	C16H11FNO2-
271.0778	25	C16H12FO3-
278.0994	3	C18H13FNO-
280.0781	10	C17H11FNO2-
282.0574	32	C16H9FNO3-
283.0652	98	C16H10FNO3-
284.0729	496	C16H11FNO3-
296.0728	3	C17H11FNO3-
298.0885	152	C17H13FNO3-
320.1093	128	C20H15FNO2-
322.0883	8	C19H13FNO3-
338.12	21	C20H17FNO3-
