Mass spectrum: Cortisone; LC-ESI-QFT; MS2; CE: 60; R=17500; [M-H]-
Name: Cortisone
Name: (8S,9S,10R,13S,14S,17R)-17-hydroxy-17-(2-hydroxyacetyl)-10,13-dimethyl-1,2,6,7,8,9,12,14,15,16-decahydrocyclopenta[a]phenanthrene-3,11-dione
Formula: C21H28O5
Exact mass: 360.1937
SMILES: C[C@]12CC(=O)[C@H]3[C@@H](CCC4=CC(=O)CC[C@]34C)[C@@H]1CC[C@]2(O)C(=O)CO
InChI: InChI=1S/C21H28O5/c1-19-7-5-13(23)9-12(19)3-4-14-15-6-8-21(26,17(25)11-22)20(15,2)10-16(24)18(14)19/h9,14-15,18,22,26H,3-8,10-11H2,1-2H3/t14-,15-,18+,19-,20-,21-/m0/s1
Instrument: Q Exactive Orbitrap (Thermo Scientific)
Instrument type: LC-ESI-QFT
Ms type: MS2
Ion mode: NEGATIVE
Ionization: ESI
Fragmentation mode: HCD
Collision energy: 60
Resolution: 17500
Column name: Acquity BEH C18 1.7um, 2.1x150mm (Waters)
Retention time: 15.523 min
Base peak: 405.1917
Precursor m/z: 359.1864
Precursor type: [M-H]-
Precursor intensity: 1293594.265625
m/z	relative intensity	assigned
57.0346	162	C3H5O-
95.0502	24	C6H7O-
97.0659	31	C6H9O-
107.0502	42	C7H7O-
107.0866	9	C8H11-
108.0219	8	C6H4O2-
109.0659	224	C7H9O-
119.0504	24	C8H7O-
121.0658	20	C8H9O-
122.0374	145	C7H6O2-
123.0452	88	C7H7O2-
123.0816	68	C8H11O-
125.0609	55	C7H9O2-
135.0451	32	C8H7O2-
135.0815	61	C9H11O-
136.053	123	C8H8O2-
137.0608	999	C8H9O2-
138.0321	17	C7H6O3-
147.045	13	C9H7O2-
147.0818	13	C10H11O-
148.0525	8	C9H8O2-
149.0608	242	C9H9O2-
151.04	38	C8H7O3-
154.0273	26	C7H6O4-
161.0971	40	C11H13O-
163.0767	45	C10H11O2-
168.043	28	C8H8O4-
175.0766	10	C11H11O2-
175.1128	28	C12H15O-
179.1079	8	C11H15O2-
187.0767	11	C12H11O2-
259.1348	10	C16H19O3-
271.1335	23	C17H19O3-
283.1694	10	C19H23O2-
311.1655	19	C20H23O3-
329.1756	12	C20H25O4-
