Mass spectrum: Diphenyl isophthalate; LC-ESI-QFT; MS2; CE: 30; R=17500; [M-H]-
Name: Diphenyl isophthalate
Name: diphenyl benzene-1,3-dicarboxylate
Formula: C20H14O4
Exact mass: 318.0892
SMILES: O=C(OC1=CC=CC=C1)C1=CC(=CC=C1)C(=O)OC1=CC=CC=C1
InChI: InChI=1S/C20H14O4/c21-19(23-17-10-3-1-4-11-17)15-8-7-9-16(14-15)20(22)24-18-12-5-2-6-13-18/h1-14H
Instrument: Q Exactive Orbitrap (Thermo Scientific)
Instrument type: LC-ESI-QFT
Ms type: MS2
Ion mode: NEGATIVE
Ionization: ESI
Fragmentation mode: HCD
Collision energy: 30
Resolution: 17500
Column name: Acquity BEH C18 1.7um, 2.1x150mm (Waters)
Retention time: 15.329 min
Base peak: 259.0087
Precursor m/z: 317.0819
Precursor type: [M-H]-
Precursor intensity: 7693668.635742
m/z	relative intensity	assigned
93.0346	999	C6H5O-
180.0582	20	C13H8O-
195.0454	1	C13H7O2-
197.0615	3	C13H9O2-
205.0661	1	C15H9O-
223.0402	4	C14H7O3-
224.048	16	C14H8O3-
227.0869	2	C18H11-
243.0814	8	C18H11O-
245.0971	7	C18H13O-
271.0763	3	C19H11O2-
272.0845	112	C19H12O2-
273.0923	154	C19H13O2-
