Mass spectrum: Ethyl anthranilate; LC-ESI-QFT; MS2; CE: 75; R=17500; [M+H]+
Name: Ethyl anthranilate
Name: ethyl 2-aminobenzoate
Formula: C9H11NO2
Exact mass: 165.0790
SMILES: CCOC(=O)C1=C(N)C=CC=C1
InChI: InChI=1S/C9H11NO2/c1-2-12-9(11)7-5-3-4-6-8(7)10/h3-6H,2,10H2,1H3
Instrument: Q Exactive Orbitrap (Thermo Scientific)
Instrument type: LC-ESI-QFT
Ms type: MS2
Ion mode: POSITIVE
Ionization: ESI
Fragmentation mode: HCD
Collision energy: 75
Resolution: 17500
Column name: Acquity BEH C18 1.7um, 2.1x150mm (Waters)
Retention time: 19.153 min
Base peak: 79.0211
Precursor m/z: 166.0863
Precursor type: [M+H]+
Precursor intensity: 3645986.03125
m/z	relative intensity	assigned
53.0023	2	C3HO+
53.0386	7	C4H5+
55.0179	6	C3H3O+
58.0288	37	C2H4NO+
65.0386	81	C5H5+
66.0464	6	C5H6+
67.0543	4	C5H7+
79.0542	92	C6H7+
81.0699	301	C6H9+
91.0543	287	C7H7+
93.0336	2	C6H5O+
94.0414	370	C6H6O+
95.0492	5	C6H7O+
107.0492	193	C7H7O+
108.0572	2	C7H8O+
109.0648	999	C7H9O+
111.0441	39	C6H7O2+
