Mass spectrum: Theophylline; LC-ESI-QFT; MS2; CE: 15; R=17500; [M+H]+
Name: Theophylline
Name: 1,3-dimethyl-7H-purine-2,6-dione
Formula: C7H8N4O2
Exact mass: 180.0647
SMILES: CN1C2=C(NC=N2)C(=O)N(C)C1=O
InChI: InChI=1S/C7H8N4O2/c1-10-5-4(8-3-9-5)6(12)11(2)7(10)13/h3H,1-2H3,(H,8,9)
Instrument: Q Exactive Orbitrap (Thermo Scientific)
Instrument type: LC-ESI-QFT
Ms type: MS2
Ion mode: POSITIVE
Ionization: ESI
Fragmentation mode: HCD
Collision energy: 15
Resolution: 17500
Column name: Acquity BEH C18 1.7um, 2.1x150mm (Waters)
Retention time: 10.145 min
Base peak: 79.0211
Precursor m/z: 181.072
Precursor type: [M+H]+
Precursor intensity: 1999969
m/z	relative intensity	assigned
69.0447	1	C3H5N2+
96.0556	2	C4H6N3+
124.0506	90	C5H6N3O+
137.0823	5	C6H9N4+
142.0612	5	C5H8N3O2+
149.0234	32	C6H3N3O2+
163.0389	16	C7H5N3O2+
181.072	999	C7H9N4O2+
