Mass spectrum: Theophylline; LC-ESI-QFT; MS2; CE: 90; R=17500; [M-H]-
Name: Theophylline
Name: 1,3-dimethyl-7H-purine-2,6-dione
Formula: C7H8N4O2
Exact mass: 180.0647
SMILES: CN1C2=C(NC=N2)C(=O)N(C)C1=O
InChI: InChI=1S/C7H8N4O2/c1-10-5-4(8-3-9-5)6(12)11(2)7(10)13/h3H,1-2H3,(H,8,9)
Instrument: Q Exactive Orbitrap (Thermo Scientific)
Instrument type: LC-ESI-QFT
Ms type: MS2
Ion mode: NEGATIVE
Ionization: ESI
Fragmentation mode: HCD
Collision energy: 90
Resolution: 17500
Column name: Acquity BEH C18 1.7um, 2.1x150mm (Waters)
Retention time: 10.115 min
Base peak: 179.0573
Precursor m/z: 179.0574
Precursor type: [M-H]-
Precursor intensity: 12455241.37134
m/z	relative intensity	assigned
55.0301	17	C2H3N2-
65.0145	17	C3HN2-
65.9986	775	C3NO-
66.0097	136	C2N3-
67.0176	21	C2HN3-
67.0302	170	C3H3N2-
68.0143	10	C3H2NO-
69.0095	101	C2HN2O-
71.0252	3	C2H3N2O-
79.0176	802	C3HN3-
80.0255	4	C3H2N3-
85.0409	5	C3H5N2O-
92.0255	152	C4H2N3-
94.0411	895	C4H4N3-
95.0251	13	C4H3N2O-
107.0125	22	C4HN3O-
108.0205	8	C4H2N3O-
109.0282	17	C4H3N3O-
112.0521	3	C4H6N3O-
120.0204	57	C5H2N3O-
121.0283	37	C5H3N3O-
122.0361	999	C5H4N3O-
123.0075	50	C4HN3O2-
124.0153	32	C4H2N3O2-
135.0076	651	C5HN3O2-
135.0313	650	C5H3N4O-
136.0391	107	C5H4N4O-
140.0466	12	C5H6N3O2-
164.0342	823	C6H4N4O2-
179.0576	57	C7H7N4O2-
