Mass spectrum: 7-(Dimethylamino)-4-methylcoumarin; LC-ESI-QFT; MS2; CE: 30; R=17500; [M+H]+
Name: 7-(Dimethylamino)-4-methylcoumarin
Name: 7-(dimethylamino)-4-methylchromen-2-one
Formula: C12H13NO2
Exact mass: 203.0946
SMILES: CN(C)C1=CC2=C(C=C1)C(C)=CC(=O)O2
InChI: InChI=1S/C12H13NO2/c1-8-6-12(14)15-11-7-9(13(2)3)4-5-10(8)11/h4-7H,1-3H3
Instrument: Q Exactive Orbitrap (Thermo Scientific)
Instrument type: LC-ESI-QFT
Ms type: MS2
Ion mode: POSITIVE
Ionization: ESI
Fragmentation mode: HCD
Collision energy: 30
Resolution: 17500
Column name: Acquity BEH C18 1.7um, 2.1x150mm (Waters)
Retention time: 16.288 min
Base peak: 79.0212
Precursor m/z: 204.1019
Precursor type: [M+H]+
Precursor intensity: 30219341.5
m/z	relative intensity	assigned
132.0806	1	C9H10N+
144.081	1	C10H10N+
145.0887	1	C10H11N+
148.112	2	C10H14N+
160.1121	6	C11H14N+
176.1071	3	C11H14NO+
189.0783	5	C11H11NO2+
204.1019	999	C12H14NO2+
