Mass spectrum: N-Phenyl-2-naphthylamine; LC-ESI-QFT; MS2; CE: 45; R=17500; [M+H]+
Name: N-Phenyl-2-naphthylamine
Name: N-phenylnaphthalen-2-amine
Formula: C16H13N
Exact mass: 219.1048
SMILES: N(C1=CC=CC=C1)C1=CC=C2C=CC=CC2=C1
InChI: InChI=1S/C16H13N/c1-2-8-15(9-3-1)17-16-11-10-13-6-4-5-7-14(13)12-16/h1-12,17H
Instrument: Q Exactive Orbitrap (Thermo Scientific)
Instrument type: LC-ESI-QFT
Ms type: MS2
Ion mode: POSITIVE
Ionization: ESI
Fragmentation mode: HCD
Collision energy: 45
Resolution: 17500
Column name: Acquity BEH C18 1.7um, 2.1x150mm (Waters)
Retention time: 19.199 min
Base peak: 79.0212
Precursor m/z: 220.1121
Precursor type: [M+H]+
Precursor intensity: 15015931.375
m/z	relative intensity	assigned
65.0386	25	C5H5+
92.0495	475	C6H6N+
93.0573	18	C6H7N+
103.0542	1	C8H7+
104.0495	4	C7H6N+
115.0543	97	C9H7+
117.0699	4	C9H9+
127.0541	1	C10H7+
128.0621	181	C10H8+
142.0653	189	C10H8N+
143.073	467	C10H9N+
165.0699	1	C13H9+
178.0778	5	C14H10+
179.0852	2	C14H11+
191.0731	1	C14H9N+
191.085	1	C15H11+
193.1014	9	C15H13+
202.0779	6	C16H10+
203.0856	40	C16H11+
204.0808	17	C15H10N+
204.0933	5	C16H12+
205.0887	76	C15H11N+
217.0887	1	C16H11N+
218.0967	16	C16H12N+
219.1047	26	C16H13N+
220.1121	999	C16H14N+
