Mass spectrum: 17alpha-Hydroxyprogesterone; LC-ESI-QFT; MS2; CE: 30; R=17500; [M+H]+
Name: 17alpha-Hydroxyprogesterone
Name: (8R,9S,10R,13S,14S,17R)-17-acetyl-17-hydroxy-10,13-dimethyl-2,6,7,8,9,11,12,14,15,16-decahydro-1H-cyclopenta[a]phenanthren-3-one
Formula: C21H30O3
Exact mass: 330.2195
SMILES: CC(=O)[C@@]1(O)CC[C@H]2[C@@H]3CCC4=CC(=O)CC[C@]4(C)[C@H]3CC[C@]12C
InChI: InChI=1S/C21H30O3/c1-13(22)21(24)11-8-18-16-5-4-14-12-15(23)6-9-19(14,2)17(16)7-10-20(18,21)3/h12,16-18,24H,4-11H2,1-3H3/t16-,17+,18+,19+,20+,21+/m1/s1
Instrument: Q Exactive Orbitrap (Thermo Scientific)
Instrument type: LC-ESI-QFT
Ms type: MS2
Ion mode: POSITIVE
Ionization: ESI
Fragmentation mode: HCD
Collision energy: 30
Resolution: 17500
Column name: Acquity BEH C18 1.7um, 2.1x150mm (Waters)
Retention time: 17.832 min
Base peak: 79.0211
Precursor m/z: 331.2268
Precursor type: [M+H]+
Precursor intensity: 4501870.125
m/z	relative intensity	assigned
57.0336	2	C3H5O+
61.0284	3	C2H5O2+
67.0543	3	C5H7+
69.0698	2	C5H9+
79.0542	7	C6H7+
81.0698	19	C6H9+
83.0491	49	C5H7O+
83.0857	4	C6H11+
85.0647	14	C5H9O+
91.0544	2	C7H7+
93.0699	10	C7H9+
95.0488	2	C6H7O+
95.0856	37	C7H11+
97.0648	999	C6H9O+
99.0441	2	C5H7O2+
99.0804	12	C6H11O+
105.07	7	C8H9+
107.0855	17	C8H11+
109.0648	689	C7H9O+
111.0805	13	C7H11O+
117.0696	2	C9H9+
119.0856	22	C9H11+
121.0648	17	C8H9O+
121.1012	20	C9H13+
123.0804	65	C8H11O+
125.096	2	C8H13O+
127.0754	7	C7H11O2+
131.0855	12	C10H11+
133.1012	18	C10H13+
135.0805	14	C9H11O+
135.1166	14	C10H15+
137.0961	51	C9H13O+
139.1117	5	C9H15O+
143.0859	13	C11H11+
145.1012	52	C11H13+
147.0808	5	C10H11O+
147.1169	28	C11H15+
149.0962	20	C10H13O+
149.1325	6	C11H17+
151.1118	6	C10H15O+
155.0856	6	C12H11+
157.1013	19	C12H13+
159.1168	46	C12H15+
161.0963	14	C11H13O+
161.1324	23	C12H17+
163.1118	88	C11H15O+
163.1482	8	C12H19+
169.1011	13	C13H13+
171.1168	47	C13H15+
173.0962	5	C12H13O+
173.1325	34	C13H17+
175.1119	27	C12H15O+
175.1482	36	C13H19+
177.1274	65	C12H17O+
181.101	4	C14H13+
183.1168	18	C14H15+
185.0959	4	C13H13O+
185.1325	26	C14H17+
187.1117	10	C13H15O+
187.1481	30	C14H19+
189.1272	28	C13H17O+
189.1635	10	C14H21+
191.1431	16	C13H19O+
195.1171	8	C15H15+
197.1327	24	C15H17+
199.1118	4	C14H15O+
199.1482	44	C15H19+
201.1274	13	C14H17O+
201.164	4	C15H21+
203.1432	24	C14H19O+
205.1588	45	C14H21O+
207.1169	4	C16H15+
209.1322	9	C16H17+
211.1483	32	C16H19+
213.1275	12	C15H17O+
213.1638	35	C16H21+
215.1432	15	C15H19O+
217.1587	43	C15H21O+
221.1325	6	C17H17+
223.148	5	C17H19+
225.1276	4	C16H17O+
225.164	18	C17H21+
227.1433	6	C16H19O+
227.1792	10	C17H23+
229.1587	22	C16H21O+
231.1744	28	C16H23O+
235.1482	9	C18H19+
237.1637	26	C18H21+
239.1429	12	C17H19O+
239.1801	6	C18H23+
241.1588	20	C17H21O+
243.1746	16	C17H23O+
245.1907	9	C17H25O+
249.1636	3	C19H21+
251.1797	16	C19H23+
252.1872	7	C19H24+
253.1604	9	C18H21O+
253.1951	145	C19H25+
255.1743	38	C18H23O+
259.1691	26	C17H23O2+
267.211	12	C20H27+
269.1902	32	C19H25O+
270.1975	13	C19H26O+
271.2057	177	C19H27O+
273.1849	7	C18H25O2+
277.1952	38	C21H25+
285.2221	9	C20H29O+
289.2164	24	C19H29O2+
295.2058	181	C21H27O+
313.2164	345	C21H29O2+
331.2271	805	C21H31O3+
