Mass spectrum: Ethyl anthranilate; LC-ESI-QFT; MS2; CE: 60; R=17500; [M+H]+
Name: Ethyl anthranilate
Name: ethyl 2-aminobenzoate
Formula: C9H11NO2
Exact mass: 165.0790
SMILES: CCOC(=O)C1=C(N)C=CC=C1
InChI: InChI=1S/C9H11NO2/c1-2-12-9(11)7-5-3-4-6-8(7)10/h3-6H,2,10H2,1H3
Instrument: Q Exactive Orbitrap (Thermo Scientific)
Instrument type: LC-ESI-QFT
Ms type: MS2
Ion mode: POSITIVE
Ionization: ESI
Fragmentation mode: HCD
Collision energy: 60
Resolution: 17500
Column name: Acquity BEH C18 1.7um, 2.1x150mm (Waters)
Retention time: 19.153 min
Base peak: 79.0211
Precursor m/z: 166.0863
Precursor type: [M+H]+
Precursor intensity: 3344680.8125
m/z	relative intensity	assigned
53.0386	1	C4H5+
55.018	1	C3H3O+
58.0287	12	C2H4NO+
65.0385	12	C5H5+
66.0465	1	C5H6+
67.0543	1	C5H7+
79.0542	25	C6H7+
81.0699	140	C6H9+
91.0542	82	C7H7+
94.0413	84	C6H6O+
95.049	1	C6H7O+
107.0492	67	C7H7O+
109.0648	999	C7H9O+
111.044	10	C6H7O2+
