Mass spectrum: 17alpha-Hydroxyprogesterone; LC-ESI-QFT; MS2; CE: 75; R=17500; [M+H]+
Name: 17alpha-Hydroxyprogesterone
Name: (8R,9S,10R,13S,14S,17R)-17-acetyl-17-hydroxy-10,13-dimethyl-2,6,7,8,9,11,12,14,15,16-decahydro-1H-cyclopenta[a]phenanthren-3-one
Formula: C21H30O3
Exact mass: 330.2195
SMILES: CC(=O)[C@@]1(O)CC[C@H]2[C@@H]3CCC4=CC(=O)CC[C@]4(C)[C@H]3CC[C@]12C
InChI: InChI=1S/C21H30O3/c1-13(22)21(24)11-8-18-16-5-4-14-12-15(23)6-9-19(14,2)17(16)7-10-20(18,21)3/h12,16-18,24H,4-11H2,1-3H3/t16-,17+,18+,19+,20+,21+/m1/s1
Instrument: Q Exactive Orbitrap (Thermo Scientific)
Instrument type: LC-ESI-QFT
Ms type: MS2
Ion mode: POSITIVE
Ionization: ESI
Fragmentation mode: HCD
Collision energy: 75
Resolution: 17500
Column name: Acquity BEH C18 1.7um, 2.1x150mm (Waters)
Retention time: 17.852 min
Base peak: 79.0211
Precursor m/z: 331.2268
Precursor type: [M+H]+
Precursor intensity: 4202151
m/z	relative intensity	assigned
50.0151	2	C4H2+
53.0023	9	C3HO+
53.0386	24	C4H5+
55.0179	44	C3H3O+
55.0543	35	C4H7+
57.0336	5	C3H5O+
59.0492	7	C3H7O+
61.0285	3	C2H5O2+
65.0386	14	C5H5+
66.0465	2	C5H6+
67.0542	98	C5H7+
69.0335	10	C4H5O+
69.0699	64	C5H9+
71.0491	4	C4H7O+
77.0386	5	C6H5+
79.0543	341	C6H7+
81.0699	292	C6H9+
83.0492	70	C5H7O+
85.0649	2	C5H9O+
87.0441	3	C4H7O2+
91.0543	156	C7H7+
93.07	110	C7H9+
94.0413	10	C6H6O+
95.0492	52	C6H7O+
95.0856	91	C7H11+
97.0649	999	C6H9O+
99.0441	2	C5H7O2+
103.0543	6	C8H7+
105.07	161	C8H9+
107.0493	14	C7H7O+
107.0856	51	C8H11+
108.0569	3	C7H8O+
109.0649	904	C7H9O+
111.0804	9	C7H11O+
115.0542	13	C9H7+
116.0619	3	C9H8+
117.07	43	C9H9+
119.0856	104	C9H11+
121.0649	36	C8H9O+
121.1013	23	C9H13+
123.0805	128	C8H11O+
128.0621	22	C10H8+
129.0699	39	C10H9+
130.0778	13	C10H10+
131.0856	75	C10H11+
133.0649	6	C9H9O+
133.1013	41	C10H13+
135.0805	11	C9H11O+
135.1168	6	C10H15+
137.0962	10	C9H13O+
141.0699	13	C11H9+
142.0779	28	C11H10+
143.0856	52	C11H11+
144.0935	12	C11H12+
145.1012	67	C11H13+
146.1088	2	C11H14+
147.0806	7	C10H11O+
147.1168	28	C11H15+
148.0886	5	C10H12O+
149.0963	9	C10H13O+
149.1328	2	C11H17+
153.0701	7	C12H9+
154.078	7	C12H10+
155.0856	28	C12H11+
156.0936	16	C12H12+
157.1013	35	C12H13+
158.109	3	C12H14+
159.117	32	C12H15+
160.1245	3	C12H16+
161.096	5	C11H13O+
161.1329	9	C12H17+
163.1115	13	C11H15O+
165.07	8	C13H9+
167.0857	9	C13H11+
168.0936	7	C13H12+
169.1014	30	C13H13+
170.109	5	C13H14+
171.1169	21	C13H15+
173.0966	2	C12H13O+
173.1327	12	C13H17+
175.1118	3	C12H15O+
175.1481	4	C13H19+
177.1275	4	C12H17O+
179.0858	4	C14H11+
180.0938	4	C14H12+
181.1014	12	C14H13+
182.1093	6	C14H14+
183.117	18	C14H15+
184.1251	3	C14H16+
185.1327	11	C14H17+
187.1481	3	C14H19+
192.0933	3	C15H12+
193.1012	3	C15H13+
195.1169	9	C15H15+
196.1247	5	C15H16+
197.1328	11	C15H17+
199.1481	5	C15H19+
207.1164	3	C16H15+
209.1327	7	C16H17+
211.1486	5	C16H19+
213.1643	2	C16H21+
215.143	3	C15H19O+
223.1479	3	C17H19+
237.164	6	C18H21+
