Mass spectrum: Diphenyl isophthalate; LC-ESI-QFT; MS2; CE: 45; R=17500; [M+H]+
Name: Diphenyl isophthalate
Name: diphenyl benzene-1,3-dicarboxylate
Formula: C20H14O4
Exact mass: 318.0892
SMILES: O=C(OC1=CC=CC=C1)C1=CC(=CC=C1)C(=O)OC1=CC=CC=C1
InChI: InChI=1S/C20H14O4/c21-19(23-17-10-3-1-4-11-17)15-8-7-9-16(14-15)20(22)24-18-12-5-2-6-13-18/h1-14H
Instrument: Q Exactive Orbitrap (Thermo Scientific)
Instrument type: LC-ESI-QFT
Ms type: MS2
Ion mode: POSITIVE
Ionization: ESI
Fragmentation mode: HCD
Collision energy: 45
Resolution: 17500
Column name: Acquity BEH C18 1.7um, 2.1x150mm (Waters)
Retention time: 15.346 min
Base peak: 79.0211
Precursor m/z: 319.0965
Precursor type: [M+H]+
Precursor intensity: 7252926.875
m/z	relative intensity	assigned
53.0386	2	C4H5+
77.0388	1	C6H5+
95.0491	8	C6H7O+
105.0335	42	C7H5O+
119.0129	1	C7H3O2+
121.0283	6	C7H5O2+
141.0698	19	C11H9+
152.062	5	C12H8+
153.0698	21	C12H9+
169.0648	32	C12H9O+
179.0491	2	C13H7O+
181.0649	4	C13H9O+
183.0442	6	C12H7O2+
197.0597	106	C13H9O2+
207.0441	6	C14H7O2+
225.0545	999	C14H9O3+
255.0804	5	C19H11O+
273.0902	2	C19H13O2+
283.075	3	C20H11O2+
284.0834	2	C20H12O2+
300.0782	1	C20H12O3+
301.0864	1	C20H13O3+
319.0963	2	C20H15O4+
