Mass spectrum: 7-(Dimethylamino)-4-methylcoumarin; LC-ESI-QFT; MS2; CE: 45; R=17500; [M+H]+
Name: 7-(Dimethylamino)-4-methylcoumarin
Name: 7-(dimethylamino)-4-methylchromen-2-one
Formula: C12H13NO2
Exact mass: 203.0946
SMILES: CN(C)C1=CC2=C(C=C1)C(C)=CC(=O)O2
InChI: InChI=1S/C12H13NO2/c1-8-6-12(14)15-11-7-9(13(2)3)4-5-10(8)11/h4-7H,1-3H3
Instrument: Q Exactive Orbitrap (Thermo Scientific)
Instrument type: LC-ESI-QFT
Ms type: MS2
Ion mode: POSITIVE
Ionization: ESI
Fragmentation mode: HCD
Collision energy: 45
Resolution: 17500
Column name: Acquity BEH C18 1.7um, 2.1x150mm (Waters)
Retention time: 16.293 min
Base peak: 79.0212
Precursor m/z: 204.1019
Precursor type: [M+H]+
Precursor intensity: 31702193.5
m/z	relative intensity	assigned
67.0177	1	C4H3O+
70.0651	1	C4H8N+
91.0542	4	C7H7+
103.0542	3	C8H7+
105.0699	2	C8H9+
106.0652	1	C7H8N+
115.0541	2	C9H7+
116.0621	3	C9H8+
117.0573	6	C8H7N+
117.0699	5	C9H9+
118.0651	12	C8H8N+
121.0886	1	C8H11N+
129.0699	1	C10H9+
130.0652	8	C9H8N+
131.0491	2	C9H7O+
131.073	12	C9H9N+
132.0808	25	C9H10N+
133.0886	7	C9H11N+
138.0915	2	C8H12NO+
144.0808	30	C10H10N+
145.0886	39	C10H11N+
146.0965	8	C10H12N+
147.068	1	C9H9NO+
148.1121	84	C10H14N+
158.0965	10	C11H12N+
159.044	4	C10H7O2+
159.1043	6	C11H13N+
160.1121	55	C11H14N+
161.0835	28	C10H11NO+
162.0913	3	C10H12NO+
164.0701	2	C9H10NO2+
174.0915	1	C11H12NO+
176.107	41	C11H14NO+
188.0702	2	C11H10NO2+
189.0785	29	C11H11NO2+
204.1019	999	C12H14NO2+
