Mass spectrum: S-Metolachlor; LC-ESI-QFT; MS2; CE: 60; R=17500; [M+H]+
Name: S-Metolachlor
Name: 2-chloro-N-(2-ethyl-6-methylphenyl)-N-[(2S)-1-methoxypropan-2-yl]acetamide
Formula: C15H22ClNO2
Exact mass: 283.1339
SMILES: CCC1=C(N([C@@H](C)COC)C(=O)CCl)C(C)=CC=C1
InChI: InChI=1S/C15H22ClNO2/c1-5-13-8-6-7-11(2)15(13)17(14(18)9-16)12(3)10-19-4/h6-8,12H,5,9-10H2,1-4H3/t12-/m0/s1
Instrument: Q Exactive Orbitrap (Thermo Scientific)
Instrument type: LC-ESI-QFT
Ms type: MS2
Ion mode: POSITIVE
Ionization: ESI
Fragmentation mode: HCD
Collision energy: 60
Resolution: 17500
Column name: Acquity BEH C18 1.7um, 2.1x150mm (Waters)
Retention time: 18.173 min
Base peak: 79.0211
Precursor m/z: 284.1412
Precursor type: [M+H]+
Precursor intensity: 23158656
m/z	relative intensity	assigned
53.0022	6	C3HO+
53.9975	1	C2NO+
56.0494	5	C3H6N+
60.0808	5	C3H10N+
69.0699	1	C5H9+
73.0648	103	C4H9O+
76.9788	83	C2H2ClO+
79.0543	3	C6H7+
91.0542	56	C7H7+
93.0576	1	C6H7N+
93.0699	10	C7H9+
95.0491	1	C6H7O+
103.054	5	C8H7+
104.0622	3	C8H8+
105.07	8	C8H9+
106.0652	3	C7H8N+
107.0491	3	C7H7O+
107.073	2	C7H9N+
107.0856	11	C8H11+
108.0808	34	C7H10N+
109.0648	24	C7H9O+
115.0541	6	C9H7+
117.0574	3	C8H7N+
117.0699	43	C9H9+
118.0652	16	C8H8N+
119.073	25	C8H9N+
119.0856	47	C9H11+
120.0809	54	C8H10N+
121.065	2	C8H9O+
129.07	3	C10H9+
130.0652	18	C9H8N+
131.073	29	C9H9N+
131.0855	14	C10H11+
132.0809	42	C9H10N+
133.0886	145	C9H11N+
134.0964	383	C9H12N+
135.0804	12	C9H11O+
135.1043	3	C9H13N+
136.1121	9	C9H14N+
137.0961	3	C9H13O+
141.0698	1	C11H9+
142.0776	1	C11H10+
143.073	30	C10H9N+
143.0856	1	C11H11+
144.0809	36	C10H10N+
145.0886	47	C10H11N+
146.0964	136	C10H12N+
147.0676	4	C9H9NO+
147.1042	31	C10H13N+
148.0755	10	C9H10NO+
148.112	48	C10H14N+
156.0809	1	C11H10N+
157.0887	1	C11H11N+
158.0965	86	C11H12N+
159.1043	44	C11H13N+
159.117	3	C12H15+
160.1121	133	C11H14N+
161.12	6	C11H15N+
162.0913	25	C10H12NO+
162.1275	1	C11H16N+
166.042	6	C9H9ClN+
170.0957	1	C12H12N+
174.0915	2	C11H12NO+
174.1279	14	C12H16N+
175.1355	3	C12H17N+
176.1434	999	C12H18N+
178.0417	2	C10H9ClN+
179.05	1	C10H10ClN+
182.0368	3	C9H9ClNO+
182.0733	3	C10H13ClN+
184.0524	101	C9H11ClNO+
188.107	8	C12H14NO+
192.0577	3	C11H11ClN+
194.0732	28	C11H13ClN+
196.0527	3	C10H11ClNO+
202.1227	8	C13H16NO+
210.0684	1	C11H13ClNO+
212.0836	31	C11H15ClNO+
224.084	3	C12H15ClNO+
224.1201	4	C13H19ClN+
234.1054	1	C14H17ClN+
252.115	195	C14H19ClNO+
