Mass spectrum: 1-Naphthol; LC-ESI-QFT; MS2; CE: 45; R=17500; [M+H]+
Name: 1-Naphthol
Name: naphthalen-1-ol
Formula: C10H8O
Exact mass: 144.0575
SMILES: OC1=CC=CC2=CC=CC=C12
InChI: InChI=1S/C10H8O/c11-10-7-3-5-8-4-1-2-6-9(8)10/h1-7,11H
Instrument: Q Exactive Orbitrap (Thermo Scientific)
Instrument type: LC-ESI-QFT
Ms type: MS2
Ion mode: POSITIVE
Ionization: ESI
Fragmentation mode: HCD
Collision energy: 45
Resolution: 17500
Column name: Acquity BEH C18 1.7um, 2.1x150mm (Waters)
Retention time: 15.689 min
Base peak: 79.0211
Precursor m/z: 145.0648
Precursor type: [M+H]+
Precursor intensity: 16924263.5
m/z	relative intensity	assigned
91.0542	12	C7H7+
103.0542	53	C8H7+
115.0543	40	C9H7+
116.0622	1	C9H8+
117.0699	447	C9H9+
127.0542	28	C10H7+
131.0493	3	C9H7O+
144.0573	5	C10H8O+
145.0647	999	C10H9O+
