Mass spectrum: 7-(Dimethylamino)-4-methylcoumarin; LC-ESI-QFT; MS2; CE: 75; R=17500; [M+H]+
Name: 7-(Dimethylamino)-4-methylcoumarin
Name: 7-(dimethylamino)-4-methylchromen-2-one
Formula: C12H13NO2
Exact mass: 203.0946
SMILES: CN(C)C1=CC2=C(C=C1)C(C)=CC(=O)O2
InChI: InChI=1S/C12H13NO2/c1-8-6-12(14)15-11-7-9(13(2)3)4-5-10(8)11/h4-7H,1-3H3
Instrument: Q Exactive Orbitrap (Thermo Scientific)
Instrument type: LC-ESI-QFT
Ms type: MS2
Ion mode: POSITIVE
Ionization: ESI
Fragmentation mode: HCD
Collision energy: 75
Resolution: 17500
Column name: Acquity BEH C18 1.7um, 2.1x150mm (Waters)
Retention time: 16.288 min
Base peak: 79.0212
Precursor m/z: 204.1019
Precursor type: [M+H]+
Precursor intensity: 31221869.9375
m/z	relative intensity	assigned
53.0386	4	C4H5+
55.0179	3	C3H3O+
55.0416	6	C3H5N+
56.0494	7	C3H6N+
58.0651	2	C3H8N+
63.0228	1	C5H3+
65.0384	5	C5H5+
67.0178	18	C4H3O+
67.0416	1	C4H5N+
67.0542	21	C5H7+
68.0494	3	C4H6N+
70.0651	72	C4H8N+
72.0443	10	C3H6NO+
77.0386	4	C6H5+
78.0465	1	C6H6+
79.0542	55	C6H7+
80.0493	1	C5H6N+
81.0699	2	C6H9+
82.0651	8	C5H8N+
84.0445	1	C4H6NO+
89.0384	1	C7H5+
91.0542	116	C7H7+
92.062	3	C7H8+
93.0574	2	C6H7N+
93.0699	5	C7H9+
94.0651	12	C6H8N+
95.0491	13	C6H7O+
96.0442	6	C5H6NO+
102.0464	3	C8H6+
103.0542	154	C8H7+
104.0493	3	C7H6N+
104.062	17	C8H8+
105.0699	155	C8H9+
106.0651	13	C7H8N+
107.049	9	C7H7O+
107.073	10	C7H9N+
107.0855	19	C8H11+
108.0808	10	C7H10N+
109.0649	3	C7H9O+
115.0542	113	C9H7+
116.062	70	C9H8+
117.0573	92	C8H7N+
117.0698	52	C9H9+
118.0651	219	C8H8N+
119.0495	1	C8H7O+
119.0728	11	C8H9N+
119.0854	8	C9H11+
120.0808	51	C8H10N+
121.0886	85	C8H11N+
122.0602	2	C7H8NO+
122.0965	5	C8H12N+
123.0677	3	C7H9NO+
128.062	5	C10H8+
129.0699	6	C10H9+
130.0415	6	C9H6O+
130.0652	125	C9H8N+
131.0492	43	C9H7O+
131.073	106	C9H9N+
132.0571	39	C9H8O+
132.0808	407	C9H10N+
133.0886	533	C9H11N+
134.0602	9	C8H8NO+
134.0963	41	C9H12N+
135.0798	1	C9H11O+
136.0757	47	C8H10NO+
137.0834	3	C8H11NO+
138.0914	11	C8H12NO+
142.0649	2	C10H8N+
143.0729	35	C10H9N+
144.0808	463	C10H10N+
145.0886	188	C10H11N+
146.06	38	C9H8NO+
146.0964	166	C10H12N+
147.0678	18	C9H9NO+
147.1043	61	C10H13N+
148.112	999	C10H14N+
157.0886	5	C11H11N+
158.0965	133	C11H12N+
159.044	13	C10H7O2+
159.0677	5	C10H9NO+
159.1042	62	C11H13N+
160.0519	19	C10H8O2+
160.0757	228	C10H10NO+
160.112	56	C11H14N+
161.0835	487	C10H11NO+
162.0912	20	C10H12NO+
164.0705	22	C9H10NO2+
165.0783	3	C9H11NO2+
174.0913	31	C11H12NO+
175.0993	20	C11H13NO+
176.107	67	C11H14NO+
186.0913	3	C12H12NO+
187.099	1	C12H13NO+
188.0706	170	C11H10NO2+
189.0784	64	C11H11NO2+
202.0861	2	C12H12NO2+
203.0939	2	C12H13NO2+
204.1019	280	C12H14NO2+
