Mass spectrum: 3-Methyl-3,4-dihydro-2H-1,4-benzoxazine; LC-ESI-QFT; MS2; CE: 45; R=17500; [M+H]+
Name: 3-Methyl-3,4-dihydro-2H-1,4-benzoxazine
Formula: C9H11NO
Exact mass: 149.0841
SMILES: CC1COC2=C(N1)C=CC=C2
InChI: InChI=1S/C9H11NO/c1-7-6-11-9-5-3-2-4-8(9)10-7/h2-5,7,10H,6H2,1H3
Instrument: Q Exactive Orbitrap (Thermo Scientific)
Instrument type: LC-ESI-QFT
Ms type: MS2
Ion mode: POSITIVE
Ionization: ESI
Fragmentation mode: HCD
Collision energy: 45
Resolution: 17500
Column name: Acquity BEH C18 1.7um, 2.1x150mm (Waters)
Retention time: 14.863 min
Base peak: 79.0211
Precursor m/z: 150.0913
Precursor type: [M+H]+
Precursor intensity: 7965200.6875
m/z	relative intensity	assigned
77.0387	1	C6H5+
79.0542	12	C6H7+
81.0699	2	C6H9+
91.0542	1	C7H7+
92.0495	1	C6H6N+
93.07	2	C7H9+
94.0652	1	C6H8N+
106.0652	8	C7H8N+
107.073	252	C7H9N+
108.0444	4	C6H6NO+
120.0809	187	C8H10N+
121.0887	80	C8H11N+
122.0964	635	C8H12N+
134.0602	1	C8H8NO+
135.0679	6	C8H9NO+
150.0914	999	C9H12NO+
