Mass spectrum: 4,4`-(4-Methylpentane-2,2-diyl)diphenol; LC-ESI-QFT; MS2; CE: 90; R=17500; [M+H]+
Name: 4,4'-(4-Methylpentane-2,2-diyl)diphenol
Name: 4-[2-(4-hydroxyphenyl)-4-methylpentan-2-yl]phenol
Formula: C18H22O2
Exact mass: 270.1620
SMILES: CC(C)CC(C)(C1=CC=C(O)C=C1)C1=CC=C(O)C=C1
InChI: InChI=1S/C18H22O2/c1-13(2)12-18(3,14-4-8-16(19)9-5-14)15-6-10-17(20)11-7-15/h4-11,13,19-20H,12H2,1-3H3
Instrument: Q Exactive Orbitrap (Thermo Scientific)
Instrument type: LC-ESI-QFT
Ms type: MS2
Ion mode: POSITIVE
Ionization: ESI
Fragmentation mode: HCD
Collision energy: 90
Resolution: 17500
Column name: Acquity BEH C18 1.7um, 2.1x150mm (Waters)
Retention time: 16.990 min
Base peak: 79.0211
Precursor m/z: 271.1693
Precursor type: [M+H]+
Precursor intensity: 8292793.75
m/z	relative intensity	assigned
53.0023	28	C3HO+
53.0386	137	C4H5+
55.0179	183	C3H3O+
55.0543	276	C4H7+
57.0335	48	C3H5O+
57.0699	8	C4H9+
65.0386	72	C5H5+
67.0542	198	C5H7+
69.0336	30	C4H5O+
69.0698	28	C5H9+
71.0491	47	C4H7O+
77.0386	27	C6H5+
79.0542	582	C6H7+
81.0335	31	C5H5O+
81.0699	158	C6H9+
83.0492	649	C5H7O+
91.0543	999	C7H7+
92.062	13	C7H8+
93.07	142	C7H9+
94.0414	25	C6H6O+
95.0128	988	C5H3O2+
95.0492	335	C6H7O+
97.0648	13	C6H9O+
103.0543	179	C8H7+
104.0622	24	C8H8+
105.0699	750	C8H9+
107.0492	955	C7H7O+
107.0855	52	C8H11+
108.057	13	C7H8O+
109.0648	115	C7H9O+
115.0543	488	C9H7+
116.062	129	C9H8+
117.0699	454	C9H9+
118.0777	22	C9H10+
119.0856	129	C9H11+
121.0647	79	C8H9O+
123.0805	9	C8H11O+
127.0543	25	C10H7+
128.0621	745	C10H8+
129.0699	810	C10H9+
130.0778	130	C10H10+
131.0492	156	C9H7O+
131.0856	295	C10H11+
132.0571	64	C9H8O+
133.0648	345	C9H9O+
135.0805	89	C9H11O+
141.0699	913	C11H9+
142.0778	302	C11H10+
143.0856	355	C11H11+
144.0571	234	C10H8O+
144.0934	19	C11H12+
145.0648	244	C10H9O+
145.1013	82	C11H13+
146.0727	51	C10H10O+
147.0804	72	C10H11O+
148.0882	32	C10H12O+
152.062	222	C12H8+
153.0699	507	C12H9+
154.0777	275	C12H10+
155.0856	641	C12H11+
156.0934	106	C12H12+
157.0649	547	C11H9O+
157.1012	139	C12H13+
158.0726	94	C11H10O+
159.0805	194	C11H11O+
161.0963	32	C11H13O+
165.07	917	C13H9+
166.0778	492	C13H10+
167.0856	711	C13H11+
168.0934	140	C13H12+
169.0649	139	C12H9O+
169.1012	276	C13H13+
170.0725	72	C12H10O+
170.1088	35	C13H14+
171.0805	188	C12H11O+
171.1169	51	C13H15+
172.0886	35	C12H12O+
173.0963	34	C12H13O+
177.0701	28	C14H9+
178.0777	521	C14H10+
179.0856	525	C14H11+
180.0934	161	C14H12+
181.0649	100	C13H9O+
181.1012	384	C14H13+
182.0727	84	C13H10O+
182.1087	36	C14H14+
183.0806	240	C13H11O+
183.1167	76	C14H15+
184.0883	134	C13H12O+
185.0961	298	C13H13O+
186.1039	68	C13H14O+
187.1119	14	C13H15O+
191.0855	169	C15H11+
192.0935	151	C15H12+
193.1013	158	C15H13+
194.0727	31	C14H10O+
194.1094	24	C15H14+
195.0806	105	C14H11O+
195.1169	90	C15H15+
196.0886	54	C14H12O+
196.1247	14	C15H16+
197.0962	228	C14H13O+
197.1324	15	C15H17+
198.1039	96	C14H14O+
199.1118	619	C14H15O+
200.1197	103	C14H16O+
203.0859	47	C16H11+
204.0935	28	C16H12+
205.1012	112	C16H13+
206.1089	20	C16H14+
207.1167	71	C16H15+
208.0884	25	C15H12O+
209.0963	82	C15H13O+
209.1322	36	C16H17+
210.1038	20	C15H14O+
211.1116	44	C15H15O+
212.1199	21	C15H16O+
213.1274	54	C15H17O+
214.1353	27	C15H18O+
218.1092	10	C17H14+
219.1167	43	C17H15+
220.1241	15	C17H16+
223.1118	57	C16H15O+
223.1484	8	C17H19+
224.1199	11	C16H16O+
225.1277	19	C16H17O+
227.1429	21	C16H19O+
235.148	9	C18H19+
237.1271	49	C17H17O+
238.1353	33	C17H18O+
239.1438	8	C17H19O+
