Mass spectrum: Isoprocarb; LC-ESI-QFT; MS2; CE: 90; R=17500; [M+H]+
Name: Isoprocarb
Name: (2-propan-2-ylphenyl) N-methylcarbamate
Formula: C11H15NO2
Exact mass: 193.1103
SMILES: CNC(=O)OC1=C(C=CC=C1)C(C)C
InChI: InChI=1S/C11H15NO2/c1-8(2)9-6-4-5-7-10(9)14-11(13)12-3/h4-8H,1-3H3,(H,12,13)
Instrument: Q Exactive Orbitrap (Thermo Scientific)
Instrument type: LC-ESI-QFT
Ms type: MS2
Ion mode: POSITIVE
Ionization: ESI
Fragmentation mode: HCD
Collision energy: 90
Resolution: 17500
Column name: Acquity BEH C18 1.7um, 2.1x150mm (Waters)
Retention time: 17.718 min
Base peak: 79.0212
Precursor m/z: 194.1176
Precursor type: [M+H]+
Precursor intensity: 18425472.84375
m/z	relative intensity	assigned
53.0386	3	C4H5+
65.0384	6	C5H5+
77.0386	1	C6H5+
79.0542	69	C6H7+
82.0651	6	C5H8N+
91.0541	1	C7H7+
95.0491	8	C6H7O+
104.0494	3	C7H6N+
105.0573	3	C7H7N+
106.0651	139	C7H8N+
107.0729	49	C7H9N+
108.0808	1	C7H10N+
119.0724	2	C8H9N+
120.0808	11	C8H10N+
121.0886	4	C8H11N+
122.0965	1	C8H12N+
123.0679	2	C7H9NO+
124.0759	4	C7H10NO+
134.06	999	C8H8NO+
135.0679	2	C8H9NO+
136.0758	2	C8H10NO+
148.0759	3	C9H10NO+
150.055	513	C8H8NO2+
151.0628	661	C8H9NO2+
160.0757	2	C10H10NO+
164.0705	14	C9H10NO2+
166.0864	18	C9H12NO2+
178.0858	2	C10H12NO2+
179.0942	9	C10H13NO2+
