Mass spectrum: Resveratrol; LC-ESI-QFT; MS2; CE: 75; R=17500; [M-H]-
Name: Resveratrol
Name: 5-[(E)-2-(4-hydroxyphenyl)ethenyl]benzene-1,3-diol
Formula: C14H12O3
Exact mass: 228.0786
SMILES: OC1=CC=C(\C=C\C2=CC(O)=CC(O)=C2)C=C1
InChI: InChI=1S/C14H12O3/c15-12-5-3-10(4-6-12)1-2-11-7-13(16)9-14(17)8-11/h1-9,15-17H/b2-1+
Instrument: Q Exactive Orbitrap (Thermo Scientific)
Instrument type: LC-ESI-QFT
Ms type: MS2
Ion mode: NEGATIVE
Ionization: ESI
Fragmentation mode: HCD
Collision energy: 75
Resolution: 17500
Column name: Acquity BEH C18 1.7um, 2.1x150mm (Waters)
Retention time: 17.501 min
Base peak: 227.0713
Precursor m/z: 227.0714
Precursor type: [M-H]-
Precursor intensity: 74349468.47559
m/z	relative intensity	assigned
53.0033	4	C3HO-
65.0034	4	C4HO-
66.0111	2	C4H2O-
67.019	7	C4H3O-
68.9982	29	C3HO2-
69.0346	24	C4H5O-
70.006	16	C3H2O2-
71.0139	16	C3H3O2-
72.9931	11	C2HO3-
78.0112	3	C5H2O-
79.019	16	C5H3O-
79.9904	15	C4O2-
80.9982	8	C4HO2-
82.006	88	C4H2O2-
83.0139	2	C4H3O2-
86.001	4	C3H2O3-
91.0191	7	C6H3O-
92.0268	421	C6H4O-
93.0346	15	C6H5O-
95.0139	999	C5H3O2-
97.0295	12	C5H5O2-
98.001	3	C4H2O3-
106.0061	60	C6H2O2-
107.014	6	C6H3O2-
107.0502	5	C7H7O-
108.0217	970	C6H4O2-
109.0294	2	C6H5O2-
121.0297	9	C7H5O2-
123.0088	135	C6H3O3-
125.0243	2	C6H5O3-
136.0166	50	C7H4O3-
