Mass spectrum: Carabersat; LC-ESI-QFT; MS2; CE: 45; R=17500; [M+H]+
Name: Carabersat
Name: N-[(3R,4S)-6-acetyl-3-hydroxy-2,2-dimethyl-3,4-dihydrochromen-4-yl]-4-fluorobenzamide
Formula: C20H20FNO4
Exact mass: 357.1376
SMILES: CC(=O)C1=CC2=C(OC(C)(C)[C@H](O)[C@H]2NC(=O)C2=CC=C(F)C=C2)C=C1
InChI: InChI=1S/C20H20FNO4/c1-11(23)13-6-9-16-15(10-13)17(18(24)20(2,3)26-16)22-19(25)12-4-7-14(21)8-5-12/h4-10,17-18,24H,1-3H3,(H,22,25)/t17-,18+/m0/s1
Instrument: Q Exactive Orbitrap (Thermo Scientific)
Instrument type: LC-ESI-QFT
Ms type: MS2
Ion mode: POSITIVE
Ionization: ESI
Fragmentation mode: HCD
Collision energy: 45
Resolution: 17500
Column name: Acquity BEH C18 1.7um, 2.1x150mm (Waters)
Retention time: 15.712 min
Base peak: 79.0211
Precursor m/z: 358.1449
Precursor type: [M+H]+
Precursor intensity: 15150419.625
m/z	relative intensity	assigned
59.0491	249	C3H7O+
74.0964	1	C4H12N+
97.0448	5	C6H6F+
107.0492	36	C7H7O+
119.0492	9	C8H7O+
121.0284	1	C7H5O2+
121.0648	3	C8H9O+
123.0241	138	C7H4FO+
131.0856	7	C10H11+
133.0648	14	C9H9O+
135.044	2	C8H7O2+
135.0804	32	C9H11O+
140.0506	98	C7H7FNO+
147.0804	5	C10H11O+
149.0597	72	C9H9O2+
159.0805	45	C11H11O+
161.0597	118	C10H9O2+
163.039	7	C9H7O3+
163.0754	3	C10H11O2+
165.0547	18	C9H9O3+
173.0597	2	C11H9O2+
175.0753	2	C11H11O2+
177.091	999	C11H13O2+
181.0493	2	C9H9O4+
189.0913	1	C12H13O2+
191.1064	5	C12H15O2+
201.0911	44	C13H13O2+
219.1016	87	C13H15O3+
