Mass spectrum: Aminoglutethimide; LC-ESI-QFT; MS2; CE: 45; R=17500; [M+H]+
Name: Aminoglutethimide
Name: 3-(4-aminophenyl)-3-ethylpiperidine-2,6-dione
Formula: C13H16N2O2
Exact mass: 232.1212
SMILES: CCC1(CCC(=O)NC1=O)C1=CC=C(N)C=C1
InChI: InChI=1S/C13H16N2O2/c1-2-13(8-7-11(16)15-12(13)17)9-3-5-10(14)6-4-9/h3-6H,2,7-8,14H2,1H3,(H,15,16,17)
Instrument: Q Exactive Orbitrap (Thermo Scientific)
Instrument type: LC-ESI-QFT
Ms type: MS2
Ion mode: POSITIVE
Ionization: ESI
Fragmentation mode: HCD
Collision energy: 45
Resolution: 17500
Column name: Acquity BEH C18 1.7um, 2.1x150mm (Waters)
Retention time: 13.560 min
Base peak: 79.0211
Precursor m/z: 233.1285
Precursor type: [M+H]+
Precursor intensity: 6076429.3125
m/z	relative intensity	assigned
72.0443	6	C3H6NO+
86.06	6	C4H8NO+
91.0543	1	C7H7+
115.0542	2	C9H7+
117.0574	1	C8H7N+
117.0698	4	C9H9+
118.0654	1	C8H8N+
129.0698	1	C10H9+
130.0654	1	C9H8N+
131.073	7	C9H9N+
133.0525	1	C8H7NO+
142.0652	6	C10H8N+
143.073	32	C10H9N+
144.0809	12	C10H10N+
145.0647	1	C10H9O+
146.0599	1	C9H8NO+
146.0964	2	C10H12N+
147.0804	5	C10H11O+
148.0758	2	C9H10NO+
155.0734	1	C11H9N+
159.0679	133	C10H9NO+
160.076	1	C10H10NO+
162.0915	4	C10H12NO+
170.0966	1	C12H12N+
173.0838	4	C11H11NO+
174.0914	999	C11H12NO+
183.0682	1	C12H9NO+
186.0551	1	C11H8NO2+
188.1072	5	C12H14NO+
198.0914	14	C13H12NO+
201.0785	1	C12H11NO2+
204.102	1	C12H14NO2+
216.102	43	C13H14NO2+
