Mass spectrum: sec-Butylparaben; LC-ESI-QFT; MS2; CE: 90; R=17500; [M-H]-
Name: sec-Butylparaben
Name: Sec-Butyl 4-hydroxybenzoate
Name: butan-2-yl 4-hydroxybenzoate
Formula: C11H14O3
Exact mass: 194.0943
SMILES: CCC(C)OC(=O)C1=CC=C(O)C=C1
InChI: InChI=1S/C11H14O3/c1-3-8(2)14-11(13)9-4-6-10(12)7-5-9/h4-8,12H,3H2,1-2H3
Instrument: Q Exactive Orbitrap (Thermo Scientific)
Instrument type: LC-ESI-QFT
Ms type: MS2
Ion mode: NEGATIVE
Ionization: ESI
Fragmentation mode: HCD
Collision energy: 90
Resolution: 17500
Column name: Acquity BEH C18 1.7um, 2.1x150mm (Waters)
Retention time: 17.206 min
Base peak: 193.087
Precursor m/z: 193.087
Precursor type: [M-H]-
Precursor intensity: 47500687.13379
m/z	relative intensity	assigned
57.0346	10	C3H5O-
65.0397	21	C5H5-
67.019	1	C4H3O-
68.9983	5	C3HO2-
69.0347	4	C4H5O-
70.006	2	C3H2O2-
71.0139	1	C3H3O2-
71.0503	38	C4H7O-
72.9932	1	C2HO3-
73.0658	2	C4H9O-
75.024	2	C6H3-
79.0189	2	C5H3O-
80.9983	1	C4HO2-
82.006	10	C4H2O2-
91.019	13	C6H3O-
92.0268	49	C6H4O-
93.0346	999	C6H5O-
95.0138	141	C5H3O2-
97.0296	2	C5H5O2-
106.0061	6	C6H2O2-
108.0217	127	C6H4O2-
121.0294	2	C7H5O2-
123.0089	17	C6H3O3-
136.0167	3	C7H4O3-
137.0244	10	C7H5O3-
