Mass spectrum: 4,4`-(4-Methylpentane-2,2-diyl)diphenol; LC-ESI-QFT; MS2; CE: 15; R=17500; [M+H]+
Name: 4,4'-(4-Methylpentane-2,2-diyl)diphenol
Name: 4-[2-(4-hydroxyphenyl)-4-methylpentan-2-yl]phenol
Formula: C18H22O2
Exact mass: 270.1620
SMILES: CC(C)CC(C)(C1=CC=C(O)C=C1)C1=CC=C(O)C=C1
InChI: InChI=1S/C18H22O2/c1-13(2)12-18(3,14-4-8-16(19)9-5-14)15-6-10-17(20)11-7-15/h4-11,13,19-20H,12H2,1-3H3
Instrument: Q Exactive Orbitrap (Thermo Scientific)
Instrument type: LC-ESI-QFT
Ms type: MS2
Ion mode: POSITIVE
Ionization: ESI
Fragmentation mode: HCD
Collision energy: 15
Resolution: 17500
Column name: Acquity BEH C18 1.7um, 2.1x150mm (Waters)
Retention time: 16.990 min
Base peak: 79.0211
Precursor m/z: 271.1693
Precursor type: [M+H]+
Precursor intensity: 8654554.5
m/z	relative intensity	assigned
83.0495	1	C5H7O+
95.0127	10	C5H3O2+
189.1276	1	C13H17O+
197.0965	1	C14H13O+
199.1118	5	C14H15O+
253.1587	13	C18H21O+
271.1692	999	C18H23O2+
