Mass spectrum: Methyl 2-methoxybenzoate; LC-ESI-QFT; MS2; CE: 15; R=17500; [M-H]-
Name: Methyl 2-methoxybenzoate
Formula: C9H10O3
Exact mass: 166.0630
SMILES: COC(=O)C1=C(OC)C=CC=C1
InChI: InChI=1S/C9H10O3/c1-11-8-6-4-3-5-7(8)9(10)12-2/h3-6H,1-2H3
Instrument: Q Exactive Orbitrap (Thermo Scientific)
Instrument type: LC-ESI-QFT
Ms type: MS2
Ion mode: NEGATIVE
Ionization: ESI
Fragmentation mode: HCD
Collision energy: 15
Resolution: 17500
Column name: Acquity BEH C18 1.7um, 2.1x150mm (Waters)
Retention time: 15.443 min
Base peak: 165.0556
Precursor m/z: 165.0557
Precursor type: [M-H]-
Precursor intensity: 28676195.72021
m/z	relative intensity	assigned
82.0059	1	C4H2O2-
91.0188	1	C6H3O-
92.0265	23	C6H4O-
93.0346	229	C6H5O-
95.0138	22	C5H3O2-
107.0501	2	C7H7O-
108.0217	23	C6H4O2-
119.0137	3	C7H3O2-
121.0293	2	C7H5O2-
121.0658	1	C8H9O-
123.0086	2	C6H3O3-
136.0166	296	C7H4O3-
137.0243	612	C7H5O3-
165.0556	999	C9H9O3-
