Mass spectrum: Diisobutyl phthalate; LC-ESI-QFT; MS2; CE: 45; R=17500; [M+H]+
Name: Diisobutyl phthalate
Formula: C16H22O4
Exact mass: 278.1518
SMILES: CC(C)COC(=O)C1=C(C=CC=C1)C(=O)OCC(C)C
InChI: InChI=1S/C16H22O4/c1-11(2)9-19-15(17)13-7-5-6-8-14(13)16(18)20-10-12(3)4/h5-8,11-12H,9-10H2,1-4H3
Instrument: Q Exactive Orbitrap (Thermo Scientific)
Instrument type: LC-ESI-QFT
Ms type: MS2
Ion mode: POSITIVE
Ionization: ESI
Fragmentation mode: HCD
Collision energy: 45
Resolution: 17500
Column name: Acquity BEH C18 1.7um, 2.1x150mm (Waters)
Retention time: 19.148 min
Base peak: 79.0211
Precursor m/z: 279.1591
Precursor type: [M+H]+
Precursor intensity: 11450360.0625
m/z	relative intensity	assigned
57.0699	515	C4H9+
91.0543	366	C7H7+
105.0699	151	C8H9+
109.0649	945	C7H9O+
117.0699	162	C9H9+
149.0234	999	C8H5O3+
167.0859	296	C13H11+
195.0805	165	C14H11O+
