Mass spectrum: Diphenyl isophthalate; LC-ESI-QFT; MS2; CE: 45; R=17500; [M-H]-
Name: Diphenyl isophthalate
Name: diphenyl benzene-1,3-dicarboxylate
Formula: C20H14O4
Exact mass: 318.0892
SMILES: O=C(OC1=CC=CC=C1)C1=CC(=CC=C1)C(=O)OC1=CC=CC=C1
InChI: InChI=1S/C20H14O4/c21-19(23-17-10-3-1-4-11-17)15-8-7-9-16(14-15)20(22)24-18-12-5-2-6-13-18/h1-14H
Instrument: Q Exactive Orbitrap (Thermo Scientific)
Instrument type: LC-ESI-QFT
Ms type: MS2
Ion mode: NEGATIVE
Ionization: ESI
Fragmentation mode: HCD
Collision energy: 45
Resolution: 17500
Column name: Acquity BEH C18 1.7um, 2.1x150mm (Waters)
Retention time: 15.329 min
Base peak: 259.0087
Precursor m/z: 317.0819
Precursor type: [M-H]-
Precursor intensity: 8093684.983398
m/z	relative intensity	assigned
65.0397	3	C5H5-
93.0346	999	C6H5O-
180.058	46	C13H8O-
195.0449	8	C13H7O2-
197.0608	14	C13H9O2-
205.0659	7	C15H9O-
223.0401	12	C14H7O3-
224.048	3	C14H8O3-
227.0869	2	C18H11-
230.0739	1	C17H10O-
231.0816	2	C17H11O-
243.0815	17	C18H11O-
244.0892	5	C18H12O-
245.0971	14	C18H13O-
271.0764	14	C19H11O2-
272.0843	141	C19H12O2-
273.0922	32	C19H13O2-
