Mass spectrum: 4-Chloro-2-methylphenol; LC-ESI-QFT; MS2; CE: 30; R=17500; [M-H]-
Name: 4-Chloro-2-methylphenol
Formula: C7H7ClO
Exact mass: 142.0185
SMILES: CC1=C(O)C=CC(Cl)=C1
InChI: InChI=1S/C7H7ClO/c1-5-4-6(8)2-3-7(5)9/h2-4,9H,1H3
Instrument: Q Exactive Orbitrap (Thermo Scientific)
Instrument type: LC-ESI-QFT
Ms type: MS2
Ion mode: NEGATIVE
Ionization: ESI
Fragmentation mode: HCD
Collision energy: 30
Resolution: 17500
Column name: Acquity BEH C18 1.7um, 2.1x150mm (Waters)
Retention time: 16.975 min
Base peak: 212.0716
Precursor m/z: 141.0113
Precursor type: [M-H]-
Precursor intensity: 975968.234375
m/z	relative intensity	assigned
105.0345	17	C7H5O-
141.0113	999	C7H6ClO-
