Mass spectrum: Carabersat; LC-ESI-QFT; MS2; CE: 30; R=17500; [M-H]-
Name: Carabersat
Name: N-[(3R,4S)-6-acetyl-3-hydroxy-2,2-dimethyl-3,4-dihydrochromen-4-yl]-4-fluorobenzamide
Formula: C20H20FNO4
Exact mass: 357.1376
SMILES: CC(=O)C1=CC2=C(OC(C)(C)[C@H](O)[C@H]2NC(=O)C2=CC=C(F)C=C2)C=C1
InChI: InChI=1S/C20H20FNO4/c1-11(23)13-6-9-16-15(10-13)17(18(24)20(2,3)26-16)22-19(25)12-4-7-14(21)8-5-12/h4-10,17-18,24H,1-3H3,(H,22,25)/t17-,18+/m0/s1
Instrument: Q Exactive Orbitrap (Thermo Scientific)
Instrument type: LC-ESI-QFT
Ms type: MS2
Ion mode: NEGATIVE
Ionization: ESI
Fragmentation mode: HCD
Collision energy: 30
Resolution: 17500
Column name: Acquity BEH C18 1.7um, 2.1x150mm (Waters)
Retention time: 15.728 min
Base peak: 356.1304
Precursor m/z: 356.1304
Precursor type: [M-H]-
Precursor intensity: 46574423.82617
m/z	relative intensity	assigned
95.0301	2	C6H4F-
117.0219	1	C7H3NO-
135.0451	137	C8H7O2-
137.0407	96	C8H6FO-
138.0359	211	C7H5FNO-
139.02	12	C7H4FO2-
147.0449	2	C9H7O2-
149.0606	1	C9H9O2-
158.0612	1	C10H8NO-
159.0449	7	C10H7O2-
160.0403	511	C9H6NO2-
161.0606	1	C10H9O2-
162.036	3	C9H5FNO-
162.0559	23	C9H8NO2-
174.0558	2	C10H8NO2-
175.04	1	C10H7O3-
177.072	113	C11H10FO-
189.092	9	C12H13O2-
199.0767	3	C13H11O2-
208.0781	2	C11H11FNO2-
216.103	3	C13H14NO2-
217.0869	44	C13H13O3-
225.0719	1	C15H10FO-
268.0775	3	C16H11FNO2-
271.0775	10	C16H12FO3-
282.0572	1	C16H9FNO3-
283.0651	36	C16H10FNO3-
284.0728	511	C16H11FNO3-
286.0884	26	C16H13FNO3-
298.0884	999	C17H13FNO3-
320.1092	135	C20H15FNO2-
338.1199	265	C20H17FNO3-
356.1304	98	C20H19FNO4-
