Mass spectrum: Methyl 2,4-dihydroxy-3,6-dimethylbenzoate; LC-ESI-QFT; MS2; CE: 75; R=17500; [M-H]-
Name: Methyl 2,4-dihydroxy-3,6-dimethylbenzoate
Formula: C10H12O4
Exact mass: 196.0736
SMILES: COC(=O)C1=C(O)C(C)=C(O)C=C1C
InChI: InChI=1S/C10H12O4/c1-5-4-7(11)6(2)9(12)8(5)10(13)14-3/h4,11-12H,1-3H3
Instrument: Q Exactive Orbitrap (Thermo Scientific)
Instrument type: LC-ESI-QFT
Ms type: MS2
Ion mode: NEGATIVE
Ionization: ESI
Fragmentation mode: HCD
Collision energy: 75
Resolution: 17500
Column name: Acquity BEH C18 1.7um, 2.1x150mm (Waters)
Retention time: 17.051 min
Base peak: 213.0558
Precursor m/z: 195.0663
Precursor type: [M-H]-
Precursor intensity: 3190387.265625
m/z	relative intensity	assigned
65.0033	47	C4HO-
119.0502	999	C8H7O-
