Mass spectrum: Fenuron; LC-ESI-QFT; MS2; CE: 45; R=17500; [M+H]+
Name: Fenuron
Name: 1,1-dimethyl-3-phenylurea
Formula: C9H12N2O
Exact mass: 164.0950
SMILES: CN(C)C(=O)NC1=CC=CC=C1
InChI: InChI=1S/C9H12N2O/c1-11(2)9(12)10-8-6-4-3-5-7-8/h3-7H,1-2H3,(H,10,12)
Instrument: Q Exactive Orbitrap (Thermo Scientific)
Instrument type: LC-ESI-QFT
Ms type: MS2
Ion mode: POSITIVE
Ionization: ESI
Fragmentation mode: HCD
Collision energy: 45
Resolution: 17500
Column name: Acquity BEH C18 1.7um, 2.1x150mm (Waters)
Retention time: 12.657 min
Base peak: 79.0211
Precursor m/z: 165.1022
Precursor type: [M+H]+
Precursor intensity: 14619243.5625
m/z	relative intensity	assigned
56.0132	1	C2H2NO+
72.0444	999	C3H6NO+
92.0495	15	C6H6N+
95.0492	2	C6H7O+
105.0446	1	C6H5N2+
109.0522	1	C6H7NO+
120.0445	42	C7H6NO+
122.0598	1	C7H8NO+
165.1024	82	C9H13N2O+
