Mass spectrum: Theophylline; LC-ESI-QFT; MS2; CE: 45; R=17500; [M-H]-
Name: Theophylline
Name: 1,3-dimethyl-7H-purine-2,6-dione
Formula: C7H8N4O2
Exact mass: 180.0647
SMILES: CN1C2=C(NC=N2)C(=O)N(C)C1=O
InChI: InChI=1S/C7H8N4O2/c1-10-5-4(8-3-9-5)6(12)11(2)7(10)13/h3H,1-2H3,(H,8,9)
Instrument: Q Exactive Orbitrap (Thermo Scientific)
Instrument type: LC-ESI-QFT
Ms type: MS2
Ion mode: NEGATIVE
Ionization: ESI
Fragmentation mode: HCD
Collision energy: 45
Resolution: 17500
Column name: Acquity BEH C18 1.7um, 2.1x150mm (Waters)
Retention time: 10.115 min
Base peak: 179.0573
Precursor m/z: 179.0574
Precursor type: [M-H]-
Precursor intensity: 10914407.66992
m/z	relative intensity	assigned
65.9982	3	C3NO-
67.03	1	C3H3N2-
79.0174	5	C3HN3-
94.0409	25	C4H4N3-
121.0282	1	C5H3N3O-
122.0358	274	C5H4N3O-
124.0146	1	C4H2N3O2-
135.0073	13	C5HN3O2-
135.0312	7	C5H3N4O-
136.0388	5	C5H4N4O-
140.0464	42	C5H6N3O2-
164.0339	671	C6H4N4O2-
179.0573	999	C7H7N4O2-
