Mass spectrum: 7-(Dimethylamino)-4-methylcoumarin; LC-ESI-QFT; MS2; CE: 90; R=17500; [M+H]+
Name: 7-(Dimethylamino)-4-methylcoumarin
Name: 7-(dimethylamino)-4-methylchromen-2-one
Formula: C12H13NO2
Exact mass: 203.0946
SMILES: CN(C)C1=CC2=C(C=C1)C(C)=CC(=O)O2
InChI: InChI=1S/C12H13NO2/c1-8-6-12(14)15-11-7-9(13(2)3)4-5-10(8)11/h4-7H,1-3H3
Instrument: Q Exactive Orbitrap (Thermo Scientific)
Instrument type: LC-ESI-QFT
Ms type: MS2
Ion mode: POSITIVE
Ionization: ESI
Fragmentation mode: HCD
Collision energy: 90
Resolution: 17500
Column name: Acquity BEH C18 1.7um, 2.1x150mm (Waters)
Retention time: 16.293 min
Base peak: 79.0212
Precursor m/z: 204.1019
Precursor type: [M+H]+
Precursor intensity: 34369673.65625
m/z	relative intensity	assigned
53.0386	20	C4H5+
54.0339	3	C3H4N+
55.0178	8	C3H3O+
55.0416	24	C3H5N+
55.0543	2	C4H7+
56.0495	17	C3H6N+
58.0651	5	C3H8N+
65.0385	18	C5H5+
67.0178	21	C4H3O+
67.0416	4	C4H5N+
67.0542	40	C5H7+
68.0494	10	C4H6N+
70.0651	103	C4H8N+
72.0443	18	C3H6NO+
77.0384	12	C6H5+
78.0463	12	C6H6+
79.0542	188	C6H7+
80.0493	6	C5H6N+
81.0699	4	C6H9+
82.065	13	C5H8N+
89.0386	6	C7H5+
91.0542	251	C7H7+
92.062	12	C7H8+
93.0573	4	C6H7N+
93.0699	11	C7H9+
94.0651	24	C6H8N+
95.0491	65	C6H7O+
96.0443	6	C5H6NO+
102.0463	12	C8H6+
103.0542	311	C8H7+
104.0496	11	C7H6N+
104.062	55	C8H8+
105.0699	274	C8H9+
106.0414	2	C7H6O+
106.065	28	C7H8N+
107.0492	13	C7H7O+
107.0729	30	C7H9N+
107.0856	16	C8H11+
108.0807	25	C7H10N+
109.0648	4	C7H9O+
115.0542	303	C9H7+
116.062	155	C9H8+
117.0573	153	C8H7N+
117.0698	63	C9H9+
118.0651	505	C8H8N+
119.0491	5	C8H7O+
119.0729	20	C8H9N+
119.0853	4	C9H11+
120.0807	178	C8H10N+
121.0886	199	C8H11N+
122.0964	15	C8H12N+
123.0678	7	C7H9NO+
128.0618	11	C10H8+
129.0699	9	C10H9+
130.0651	195	C9H8N+
131.0492	94	C9H7O+
131.073	114	C9H9N+
132.057	87	C9H8O+
132.0808	999	C9H10N+
133.0885	828	C9H11N+
134.0597	11	C8H8NO+
134.0963	62	C9H12N+
136.0757	59	C8H10NO+
137.0835	5	C8H11NO+
138.0913	9	C8H12NO+
142.0651	17	C10H8N+
143.073	62	C10H9N+
144.0808	626	C10H10N+
145.0886	91	C10H11N+
146.06	106	C9H8NO+
146.0964	319	C10H12N+
147.068	24	C9H9NO+
147.1042	117	C10H13N+
148.112	673	C10H14N+
157.0887	9	C11H11N+
158.0964	165	C11H12N+
159.0439	6	C10H7O2+
159.0678	21	C10H9NO+
159.1043	38	C11H13N+
160.0756	631	C10H10NO+
161.0834	410	C10H11NO+
162.0912	12	C10H12NO+
164.0705	17	C9H10NO2+
174.0913	49	C11H12NO+
175.0992	23	C11H13NO+
176.1069	19	C11H14NO+
186.0912	2	C12H12NO+
188.0705	297	C11H10NO2+
189.0784	25	C11H11NO2+
204.1018	47	C12H14NO2+
