Mass spectrum: 7-(Dimethylamino)-4-methylcoumarin; LC-ESI-QFT; MS2; CE: 60; R=17500; [M+H]+
Name: 7-(Dimethylamino)-4-methylcoumarin
Name: 7-(dimethylamino)-4-methylchromen-2-one
Formula: C12H13NO2
Exact mass: 203.0946
SMILES: CN(C)C1=CC2=C(C=C1)C(C)=CC(=O)O2
InChI: InChI=1S/C12H13NO2/c1-8-6-12(14)15-11-7-9(13(2)3)4-5-10(8)11/h4-7H,1-3H3
Instrument: Q Exactive Orbitrap (Thermo Scientific)
Instrument type: LC-ESI-QFT
Ms type: MS2
Ion mode: POSITIVE
Ionization: ESI
Fragmentation mode: HCD
Collision energy: 60
Resolution: 17500
Column name: Acquity BEH C18 1.7um, 2.1x150mm (Waters)
Retention time: 16.293 min
Base peak: 79.0212
Precursor m/z: 204.1019
Precursor type: [M+H]+
Precursor intensity: 31130950.25
m/z	relative intensity	assigned
53.0387	1	C4H5+
56.0495	3	C3H6N+
58.065	1	C3H8N+
65.0384	1	C5H5+
67.0178	10	C4H3O+
67.0542	5	C5H7+
68.0493	1	C4H6N+
70.0651	25	C4H8N+
72.0443	5	C3H6NO+
77.0383	1	C6H5+
79.0542	9	C6H7+
81.0696	1	C6H9+
82.0651	2	C5H8N+
91.0542	45	C7H7+
93.07	1	C7H9+
94.0651	3	C6H8N+
95.0492	2	C6H7O+
96.0443	3	C5H6NO+
103.0542	49	C8H7+
104.0495	1	C7H6N+
104.062	2	C8H8+
105.0699	44	C8H9+
106.0651	6	C7H8N+
107.049	2	C7H7O+
107.0729	3	C7H9N+
107.0855	6	C8H11+
108.0807	1	C7H10N+
109.0648	2	C7H9O+
115.0542	30	C9H7+
116.062	34	C9H8+
117.0573	52	C8H7N+
117.0698	37	C9H9+
118.0651	82	C8H8N+
119.0729	5	C8H9N+
119.0856	5	C9H11+
120.0807	11	C8H10N+
121.0886	18	C8H11N+
122.0598	1	C7H8NO+
122.0964	2	C8H12N+
128.062	3	C10H8+
129.0699	5	C10H9+
130.0651	69	C9H8N+
131.0492	22	C9H7O+
131.073	74	C9H9N+
132.0571	12	C9H8O+
132.0808	152	C9H10N+
133.0886	157	C9H11N+
134.06	5	C8H8NO+
134.0964	14	C9H12N+
136.0757	13	C8H10NO+
137.0836	1	C8H11NO+
138.0915	9	C8H12NO+
143.0731	10	C10H9N+
144.0808	235	C10H10N+
145.0886	200	C10H11N+
146.0599	7	C9H8NO+
146.0965	68	C10H12N+
147.068	9	C9H9NO+
147.1042	12	C10H13N+
148.112	703	C10H14N+
158.0964	70	C11H12N+
159.0441	13	C10H7O2+
159.1042	49	C11H13N+
160.0757	36	C10H10NO+
160.1121	130	C11H14N+
161.0834	290	C10H11NO+
162.0913	20	C10H12NO+
164.0704	12	C9H10NO2+
174.0914	13	C11H12NO+
175.0991	8	C11H13NO+
176.107	132	C11H14NO+
186.0913	2	C12H12NO+
187.0991	2	C12H13NO+
188.0705	49	C11H10NO2+
189.0784	89	C11H11NO2+
202.0863	3	C12H12NO2+
203.0939	2	C12H13NO2+
204.1019	999	C12H14NO2+
