Mass spectrum: Aminoglutethimide; LC-ESI-QFT; MS2; CE: 75; R=17500; [M-H]-
Name: Aminoglutethimide
Name: 3-(4-aminophenyl)-3-ethylpiperidine-2,6-dione
Formula: C13H16N2O2
Exact mass: 232.1212
SMILES: CCC1(CCC(=O)NC1=O)C1=CC=C(N)C=C1
InChI: InChI=1S/C13H16N2O2/c1-2-13(8-7-11(16)15-12(13)17)9-3-5-10(14)6-4-9/h3-6H,2,7-8,14H2,1H3,(H,15,16,17)
Instrument: Q Exactive Orbitrap (Thermo Scientific)
Instrument type: LC-ESI-QFT
Ms type: MS2
Ion mode: NEGATIVE
Ionization: ESI
Fragmentation mode: HCD
Collision energy: 75
Resolution: 17500
Column name: Acquity BEH C18 1.7um, 2.1x150mm (Waters)
Retention time: 13.547 min
Base peak: 112.9857
Precursor m/z: 231.1139
Precursor type: [M-H]-
Precursor intensity: 613994.9775391
m/z	relative intensity	assigned
58.0298	58	C2H4NO-
92.0506	8	C6H6N-
144.0455	999	C9H6NO-
145.0533	27	C9H7NO-
147.0325	7	C8H5NO2-
159.0323	7	C9H5NO2-
