Mass spectrum: Theophylline; LC-ESI-QFT; MS2; CE: 75; R=17500; [M-H]-
Name: Theophylline
Name: 1,3-dimethyl-7H-purine-2,6-dione
Formula: C7H8N4O2
Exact mass: 180.0647
SMILES: CN1C2=C(NC=N2)C(=O)N(C)C1=O
InChI: InChI=1S/C7H8N4O2/c1-10-5-4(8-3-9-5)6(12)11(2)7(10)13/h3H,1-2H3,(H,8,9)
Instrument: Q Exactive Orbitrap (Thermo Scientific)
Instrument type: LC-ESI-QFT
Ms type: MS2
Ion mode: NEGATIVE
Ionization: ESI
Fragmentation mode: HCD
Collision energy: 75
Resolution: 17500
Column name: Acquity BEH C18 1.7um, 2.1x150mm (Waters)
Retention time: 10.138 min
Base peak: 171.0121
Precursor m/z: 179.0574
Precursor type: [M-H]-
Precursor intensity: 11011369.45654
m/z	relative intensity	assigned
55.0301	2	C2H3N2-
65.0144	2	C3HN2-
65.9985	156	C3NO-
66.0097	38	C2N3-
67.0176	8	C2HN3-
67.0302	50	C3H3N2-
68.0142	7	C3H2NO-
69.0095	16	C2HN2O-
79.0176	242	C3HN3-
85.0408	3	C3H5N2O-
92.0254	34	C4H2N3-
94.0411	434	C4H4N3-
95.0252	2	C4H3N2O-
107.0124	9	C4HN3O-
109.028	4	C4H3N3O-
120.0204	26	C5H2N3O-
121.0282	22	C5H3N3O-
122.036	841	C5H4N3O-
123.0074	14	C4HN3O2-
124.0152	15	C4H2N3O2-
135.0075	322	C5HN3O2-
135.0312	237	C5H3N4O-
136.039	71	C5H4N4O-
140.0465	21	C5H6N3O2-
164.034	999	C6H4N4O2-
179.0575	151	C7H7N4O2-
