Mass spectrum: Diphenyl isophthalate; LC-ESI-QFT; MS2; CE: 75; R=17500; [M+H]+
Name: Diphenyl isophthalate
Name: diphenyl benzene-1,3-dicarboxylate
Formula: C20H14O4
Exact mass: 318.0892
SMILES: O=C(OC1=CC=CC=C1)C1=CC(=CC=C1)C(=O)OC1=CC=CC=C1
InChI: InChI=1S/C20H14O4/c21-19(23-17-10-3-1-4-11-17)15-8-7-9-16(14-15)20(22)24-18-12-5-2-6-13-18/h1-14H
Instrument: Q Exactive Orbitrap (Thermo Scientific)
Instrument type: LC-ESI-QFT
Ms type: MS2
Ion mode: POSITIVE
Ionization: ESI
Fragmentation mode: HCD
Collision energy: 75
Resolution: 17500
Column name: Acquity BEH C18 1.7um, 2.1x150mm (Waters)
Retention time: 15.346 min
Base peak: 79.0211
Precursor m/z: 319.0965
Precursor type: [M+H]+
Precursor intensity: 7065296.625
m/z	relative intensity	assigned
51.023	1	C4H3+
53.0386	40	C4H5+
55.0178	6	C3H3O+
63.023	1	C5H3+
65.0385	14	C5H5+
68.9971	2	C3HO2+
77.0385	17	C6H5+
81.0336	3	C5H5O+
91.0543	5	C7H7+
93.0336	1	C6H5O+
94.0413	3	C6H6O+
95.0491	116	C6H7O+
103.0541	8	C8H7+
105.0335	449	C7H5O+
111.0441	12	C6H7O2+
115.0542	343	C9H7+
117.0699	1	C9H9+
119.0128	26	C7H3O2+
121.0284	117	C7H5O2+
127.0542	46	C10H7+
129.0334	5	C9H5O+
129.0701	1	C10H9+
139.054	5	C11H7+
140.0621	2	C11H8+
141.0698	999	C11H9+
143.0492	2	C10H7O+
144.0566	1	C10H8O+
145.0648	42	C10H9O+
149.0237	1	C8H5O3+
150.0465	3	C12H6+
151.0542	26	C12H7+
152.062	167	C12H8+
153.0699	68	C12H9+
155.0493	31	C11H7O+
168.057	48	C12H8O+
169.0648	237	C12H9O+
179.0492	30	C13H7O+
181.0648	10	C13H9O+
183.0441	20	C12H7O2+
196.0523	1	C13H8O2+
197.0597	319	C13H9O2+
202.0777	8	C16H10+
203.0856	1	C16H11+
207.0441	8	C14H7O2+
215.0852	4	C17H11+
218.0728	1	C16H10O+
225.0546	132	C14H9O3+
226.0776	27	C18H10+
227.0854	8	C18H11+
228.0935	2	C18H12+
231.0804	3	C17H11O+
237.0708	1	C19H9+
239.0852	1	C19H11+
243.0806	1	C18H11O+
244.0884	2	C18H12O+
245.0963	2	C18H13O+
254.0725	1	C19H10O+
255.0803	25	C19H11O+
256.0882	1	C19H12O+
271.0754	4	C19H11O2+
273.0915	3	C19H13O2+
283.0758	2	C20H11O2+
284.0836	4	C20H12O2+
