Mass spectrum: Phenyl salicylate; LC-ESI-QFT; MS2; CE: 75; R=17500; [M-H]-
Name: Phenyl salicylate
Name: phenyl 2-hydroxybenzoate
Formula: C13H10O3
Exact mass: 214.0630
SMILES: OC1=C(C=CC=C1)C(=O)OC1=CC=CC=C1
InChI: InChI=1S/C13H10O3/c14-12-9-5-4-8-11(12)13(15)16-10-6-2-1-3-7-10/h1-9,14H
Instrument: Q Exactive Orbitrap (Thermo Scientific)
Instrument type: LC-ESI-QFT
Ms type: MS2
Ion mode: NEGATIVE
Ionization: ESI
Fragmentation mode: HCD
Collision energy: 75
Resolution: 17500
Column name: Acquity BEH C18 1.7um, 2.1x150mm (Waters)
Retention time: 17.076 min
Base peak: 213.0557
Precursor m/z: 213.0557
Precursor type: [M-H]-
Precursor intensity: 114924114.1641
m/z	relative intensity	assigned
63.0241	2	C5H3-
65.0033	30	C4HO-
65.0397	12	C5H5-
67.019	4	C4H3O-
91.019	533	C6H3O-
93.0346	999	C6H5O-
101.0395	2	C8H5-
107.0138	7	C6H3O2-
108.0216	2	C6H4O2-
119.0502	6	C8H7O-
121.0296	3	C7H5O2-
129.0345	1	C9H5O-
135.0088	92	C7H3O3-
141.071	7	C11H9-
143.0502	10	C10H7O-
154.0426	2	C11H6O-
167.0504	2	C12H7O-
169.0659	23	C12H9O-
171.0451	2	C11H7O2-
213.0562	3	C13H9O3-
