Mass spectrum: Isoprocarb; LC-ESI-QFT; MS2; CE: 15; R=17500; [M+H]+
Name: Isoprocarb
Name: (2-propan-2-ylphenyl) N-methylcarbamate
Formula: C11H15NO2
Exact mass: 193.1103
SMILES: CNC(=O)OC1=C(C=CC=C1)C(C)C
InChI: InChI=1S/C11H15NO2/c1-8(2)9-6-4-5-7-10(9)14-11(13)12-3/h4-8H,1-3H3,(H,12,13)
Instrument: Q Exactive Orbitrap (Thermo Scientific)
Instrument type: LC-ESI-QFT
Ms type: MS2
Ion mode: POSITIVE
Ionization: ESI
Fragmentation mode: HCD
Collision energy: 15
Resolution: 17500
Column name: Acquity BEH C18 1.7um, 2.1x150mm (Waters)
Retention time: 17.718 min
Base peak: 79.0212
Precursor m/z: 194.1176
Precursor type: [M+H]+
Precursor intensity: 15491922.625
m/z	relative intensity	assigned
121.0882	5	C8H11N+
122.0966	2	C8H12N+
134.0596	2	C8H8NO+
148.0758	1	C9H10NO+
151.0629	7	C8H9NO2+
166.0864	157	C9H12NO2+
179.0942	66	C10H13NO2+
194.1176	999	C11H16NO2+
