Mass spectrum: N-Phenyl-2-naphthylamine; LC-ESI-QFT; MS2; CE: 90; R=17500; [M+H]+
Name: N-Phenyl-2-naphthylamine
Name: N-phenylnaphthalen-2-amine
Formula: C16H13N
Exact mass: 219.1048
SMILES: N(C1=CC=CC=C1)C1=CC=C2C=CC=CC2=C1
InChI: InChI=1S/C16H13N/c1-2-8-15(9-3-1)17-16-11-10-13-6-4-5-7-14(13)12-16/h1-12,17H
Instrument: Q Exactive Orbitrap (Thermo Scientific)
Instrument type: LC-ESI-QFT
Ms type: MS2
Ion mode: POSITIVE
Ionization: ESI
Fragmentation mode: HCD
Collision energy: 90
Resolution: 17500
Column name: Acquity BEH C18 1.7um, 2.1x150mm (Waters)
Retention time: 19.199 min
Base peak: 79.0212
Precursor m/z: 220.1121
Precursor type: [M+H]+
Precursor intensity: 13486702.9375
m/z	relative intensity	assigned
53.0387	1	C4H5+
63.0228	1	C5H3+
65.0386	401	C5H5+
66.0464	10	C5H6+
67.0542	1	C5H7+
77.0384	1	C6H5+
89.0386	2	C7H5+
91.0543	7	C7H7+
92.0495	257	C6H6N+
93.0573	128	C6H7N+
102.0464	4	C8H6+
103.0543	4	C8H7+
104.0495	4	C7H6N+
115.0543	495	C9H7+
116.0621	126	C9H8+
117.0572	7	C8H7N+
117.0698	4	C9H9+
126.0464	6	C10H6+
127.0543	12	C10H7+
128.0621	461	C10H8+
140.0495	1	C10H6N+
142.0652	25	C10H8N+
143.073	999	C10H9N+
152.0622	1	C12H8+
165.0697	3	C13H9+
178.0778	14	C14H10+
191.0857	2	C15H11+
193.089	2	C14H11N+
202.0778	61	C16H10+
203.0856	8	C16H11+
204.0809	41	C15H10N+
205.0892	2	C15H11N+
217.0886	17	C16H11N+
218.0966	33	C16H12N+
219.1046	12	C16H13N+
220.1121	1	C16H14N+
