Mass spectrum: Aminoglutethimide; LC-ESI-QFT; MS2; CE: 15; R=17500; [M+H]+
Name: Aminoglutethimide
Name: 3-(4-aminophenyl)-3-ethylpiperidine-2,6-dione
Formula: C13H16N2O2
Exact mass: 232.1212
SMILES: CCC1(CCC(=O)NC1=O)C1=CC=C(N)C=C1
InChI: InChI=1S/C13H16N2O2/c1-2-13(8-7-11(16)15-12(13)17)9-3-5-10(14)6-4-9/h3-6H,2,7-8,14H2,1H3,(H,15,16,17)
Instrument: Q Exactive Orbitrap (Thermo Scientific)
Instrument type: LC-ESI-QFT
Ms type: MS2
Ion mode: POSITIVE
Ionization: ESI
Fragmentation mode: HCD
Collision energy: 15
Resolution: 17500
Column name: Acquity BEH C18 1.7um, 2.1x150mm (Waters)
Retention time: 13.560 min
Base peak: 79.0211
Precursor m/z: 233.1285
Precursor type: [M+H]+
Precursor intensity: 7381238.75
m/z	relative intensity	assigned
86.06	5	C4H8NO+
148.0757	1	C9H10NO+
159.068	2	C10H9NO+
162.0914	2	C10H12NO+
174.0914	999	C11H12NO+
187.008	1	C13HNO+
188.1074	2	C12H14NO+
191.1179	10	C11H15N2O+
198.0914	2	C13H12NO+
204.1023	3	C12H14NO2+
205.0011	5	C12HN2O2+
215.118	1	C13H15N2O+
216.1019	127	C13H14NO2+
233.1285	107	C13H17N2O2+
