Mass spectrum: 1-Naphthol; LC-ESI-QFT; MS2; CE: 60; R=17500; [M-H]-
Name: 1-Naphthol
Name: naphthalen-1-ol
Formula: C10H8O
Exact mass: 144.0575
SMILES: OC1=CC=CC2=CC=CC=C12
InChI: InChI=1S/C10H8O/c11-10-7-3-5-8-4-1-2-6-9(8)10/h1-7,11H
Instrument: Q Exactive Orbitrap (Thermo Scientific)
Instrument type: LC-ESI-QFT
Ms type: MS2
Ion mode: NEGATIVE
Ionization: ESI
Fragmentation mode: HCD
Collision energy: 60
Resolution: 17500
Column name: Acquity BEH C18 1.7um, 2.1x150mm (Waters)
Retention time: 17.597 min
Base peak: 193.0869
Precursor m/z: 143.0502
Precursor type: [M-H]-
Precursor intensity: 1383637.027344
m/z	relative intensity	assigned
115.0553	325	C9H7-
143.0502	999	C10H7O-
