Mass spectrum: 2-nitrophenol; LC-ESI-QFT; MS2; CE: 90; R=17500; [M-H]-
Name: 2-nitrophenol
Formula: C6H5NO3
Exact mass: 139.0269
SMILES: OC1=C(C=CC=C1)[N+]([O-])=O
InChI: InChI=1S/C6H5NO3/c8-6-4-2-1-3-5(6)7(9)10/h1-4,8H
Instrument: Q Exactive Orbitrap (Thermo Scientific)
Instrument type: LC-ESI-QFT
Ms type: MS2
Ion mode: NEGATIVE
Ionization: ESI
Fragmentation mode: HCD
Collision energy: 90
Resolution: 17500
Column name: Acquity BEH C18 1.7um, 2.1x150mm (Waters)
Retention time: 13.886 min
Base peak: 138.0196
Precursor m/z: 138.0197
Precursor type: [M-H]-
Precursor intensity: 46999914.38867
m/z	relative intensity	assigned
82.006	2	C4H2O2-
92.0268	36	C6H4O-
95.0139	30	C5H3O2-
108.0217	999	C6H4O2-
123.0089	2	C6H3O3-
138.0197	85	C6H4NO3-
