Mass spectrum: 7-(Dimethylamino)-4-methylcoumarin; LC-ESI-QFT; MS2; CE: 30; R=17500; [M-H]-
Name: 7-(Dimethylamino)-4-methylcoumarin
Name: 7-(dimethylamino)-4-methylchromen-2-one
Formula: C12H13NO2
Exact mass: 203.0946
SMILES: CN(C)C1=CC2=C(C=C1)C(C)=CC(=O)O2
InChI: InChI=1S/C12H13NO2/c1-8-6-12(14)15-11-7-9(13(2)3)4-5-10(8)11/h4-7H,1-3H3
Instrument: Q Exactive Orbitrap (Thermo Scientific)
Instrument type: LC-ESI-QFT
Ms type: MS2
Ion mode: NEGATIVE
Ionization: ESI
Fragmentation mode: HCD
Collision energy: 30
Resolution: 17500
Column name: Acquity BEH C18 1.7um, 2.1x150mm (Waters)
Retention time: 15.736 min
Base peak: 284.0451
Precursor m/z: 202.0874
Precursor type: [M-H]-
Precursor intensity: 2272870.016602
m/z	relative intensity	assigned
55.0189	5	C3H3O-
65.0398	4	C5H5-
67.0189	4	C4H3O-
81.0347	2	C5H5O-
83.0503	111	C5H7O-
92.0506	542	C6H6N-
109.0295	999	C6H5O2-
131.0377	6	C8H5NO-
142.0663	11	C10H8N-
144.0456	5	C9H6NO-
158.0611	22	C10H8NO-
158.0978	2	C11H12N-
160.0769	15	C10H10NO-
187.064	13	C11H9NO2-
202.0874	193	C12H12NO2-
