Mass spectrum: 2-Methylanthraquinone; LC-ESI-QFT; MS2; CE: 90; R=17500; [M+H]+
Name: 2-Methylanthraquinone
Name: 2-methylanthracene-9,10-dione
Formula: C15H10O2
Exact mass: 222.0681
SMILES: CC1=CC2=C(C=C1)C(=O)C1=CC=CC=C1C2=O
InChI: InChI=1S/C15H10O2/c1-9-6-7-12-13(8-9)15(17)11-5-3-2-4-10(11)14(12)16/h2-8H,1H3
Instrument: Q Exactive Orbitrap (Thermo Scientific)
Instrument type: LC-ESI-QFT
Ms type: MS2
Ion mode: POSITIVE
Ionization: ESI
Fragmentation mode: HCD
Collision energy: 90
Resolution: 17500
Column name: Acquity BEH C18 1.7um, 2.1x150mm (Waters)
Retention time: 17.855 min
Base peak: 79.0211
Precursor m/z: 223.0754
Precursor type: [M+H]+
Precursor intensity: 28230260.25
m/z	relative intensity	assigned
50.0152	3	C4H2+
51.0228	7	C4H3+
53.0022	17	C3HO+
53.0386	324	C4H5+
55.0178	22	C3H3O+
65.0385	818	C5H5+
67.0541	5	C5H7+
68.997	123	C3HO2+
75.0228	11	C6H3+
77.0385	258	C6H5+
79.0541	4	C6H7+
80.0257	2	C5H4O+
81.0334	32	C5H5O+
81.0697	4	C6H9+
89.0386	2	C7H5+
91.0542	4	C7H7+
93.0335	264	C6H5O+
94.0413	38	C6H6O+
95.0491	999	C6H7O+
98.0362	5	C5H6O2+
101.0386	7	C8H5+
102.0464	27	C8H6+
103.0542	650	C8H7+
105.0336	87	C7H5O+
109.0648	15	C7H9O+
111.044	193	C6H7O2+
115.0541	3	C9H7+
118.0411	3	C8H6O+
121.0284	449	C7H5O2+
125.0597	22	C7H9O2+
128.062	7	C10H8+
129.0334	597	C9H5O+
141.0696	10	C11H9+
147.044	4	C9H7O2+
151.0542	4	C12H7+
152.062	206	C12H8+
153.0698	10	C12H9+
165.0698	160	C13H9+
166.0776	40	C13H10+
167.0854	65	C13H11+
169.0646	25	C12H9O+
176.062	48	C14H8+
177.0697	26	C14H9+
178.0776	200	C14H10+
179.0851	2	C14H11+
181.0646	4	C13H9O+
194.0725	2	C14H10O+
195.0798	1	C14H11O+
223.0752	164	C15H11O2+
