Mass spectrum: Carabersat; LC-ESI-QFT; MS2; CE: 60; R=17500; [M-H]-
Name: Carabersat
Name: N-[(3R,4S)-6-acetyl-3-hydroxy-2,2-dimethyl-3,4-dihydrochromen-4-yl]-4-fluorobenzamide
Formula: C20H20FNO4
Exact mass: 357.1376
SMILES: CC(=O)C1=CC2=C(OC(C)(C)[C@H](O)[C@H]2NC(=O)C2=CC=C(F)C=C2)C=C1
InChI: InChI=1S/C20H20FNO4/c1-11(23)13-6-9-16-15(10-13)17(18(24)20(2,3)26-16)22-19(25)12-4-7-14(21)8-5-12/h4-10,17-18,24H,1-3H3,(H,22,25)/t17-,18+/m0/s1
Instrument: Q Exactive Orbitrap (Thermo Scientific)
Instrument type: LC-ESI-QFT
Ms type: MS2
Ion mode: NEGATIVE
Ionization: ESI
Fragmentation mode: HCD
Collision energy: 60
Resolution: 17500
Column name: Acquity BEH C18 1.7um, 2.1x150mm (Waters)
Retention time: 15.695 min
Base peak: 356.1303
Precursor m/z: 356.1304
Precursor type: [M-H]-
Precursor intensity: 46410825.52344
m/z	relative intensity	assigned
65.9985	16	C3NO-
79.0191	1	C5H3O-
81.0346	42	C5H5O-
83.0301	1	C5H4F-
92.0262	4	C6H4O-
93.0346	109	C6H5O-
95.0303	132	C6H4F-
98.0011	1	C4H2O3-
105.0221	2	C6H3NO-
107.0503	1	C7H7O-
108.0217	30	C6H4O2-
109.046	2	C7H6F-
117.0219	8	C7H3NO-
117.0345	7	C8H5O-
118.0298	59	C7H4NO-
119.0502	4	C8H7O-
120.009	9	C6H2NO2-
120.021	1	C7H4O2-
120.0255	14	C7H3FN-
122.0245	1	C6H4NO2-
123.0088	11	C6H3O3-
123.0252	2	C7H4FO-
132.0457	6	C8H6NO-
133.017	48	C7H3NO2-
135.0452	999	C8H7O2-
136.0406	1	C7H6NO2-
137.0408	232	C8H6FO-
138.036	121	C7H5FNO-
139.0201	24	C7H4FO2-
139.0553	3	C11H7-
144.0453	4	C9H6NO-
145.017	3	C8H3NO2-
147.0451	1	C9H7O2-
147.0818	3	C10H11O-
148.053	12	C9H8O2-
149.0283	1	C8H4FNO-
149.0409	2	C9H6FO-
149.0608	5	C9H9O2-
150.0198	3	C7H4NO3-
150.0361	2	C8H5FNO-
157.0659	5	C11H9O-
158.0611	8	C10H8NO-
159.0452	99	C10H7O2-
159.0611	10	C11H8F-
160.0404	922	C9H6NO2-
161.0408	33	C10H6FO-
161.0607	5	C10H9O2-
162.0363	13	C9H5FNO-
162.056	264	C9H8NO2-
163.0401	14	C9H7O3-
164.0156	1	C8H3FNO2-
166.0308	6	C8H5FNO2-
171.0813	1	C12H11O-
174.056	2	C10H8NO2-
175.0399	9	C10H7O3-
175.0564	52	C11H8FO-
175.0764	2	C11H11O2-
176.0718	1	C10H10NO2-
177.0721	122	C11H10FO-
180.0426	10	C9H8O4-
189.0921	17	C12H13O2-
193.0657	2	C14H9O-
198.0488	6	C13H7FO-
199.0565	2	C13H8FO-
199.0765	19	C13H11O2-
200.0715	1	C12H10NO2-
202.0676	2	C12H9FNO-
211.0566	1	C14H8FO-
213.0353	1	C13H6FO2-
213.0723	1	C14H10FO-
214.0671	2	C13H9FNO-
216.0459	1	C15H6NO-
217.087	2	C13H13O3-
219.0452	1	C15H7O2-
225.0726	1	C15H10FO-
227.0391	1	C13H6FNO2-
233.0605	2	C16H9O2-
238.0672	1	C15H9FNO-
239.0386	1	C14H6FNO2-
240.0466	4	C14H7FNO2-
241.0545	10	C14H8FNO2-
242.0623	7	C14H9FNO2-
244.0415	7	C13H7FNO3-
252.0845	1	C16H11FNO-
253.0672	17	C16H10FO2-
254.0621	3	C15H9FNO2-
255.0828	1	C16H12FO2-
256.0778	11	C15H11FNO2-
257.062	22	C15H10FO3-
267.0699	1	C16H10FNO2-
271.0776	7	C16H12FO3-
278.0983	8	C18H13FNO-
280.078	20	C17H11FNO2-
282.0572	62	C16H9FNO3-
283.065	85	C16H10FNO3-
284.0728	97	C16H11FNO3-
296.0732	2	C17H11FNO3-
298.0885	3	C17H13FNO3-
320.1091	35	C20H15FNO2-
322.0884	14	C19H13FNO3-
