Mass spectrum: Methylparaben; LC-ESI-QFT; MS2; CE: 15; R=17500; [M-H]-
Name: Methylparaben
Name: methyl 4-hydroxybenzoate
Formula: C8H8O3
Exact mass: 152.0473
SMILES: COC(=O)C1=CC=C(O)C=C1
InChI: InChI=1S/C8H8O3/c1-11-8(10)6-2-4-7(9)5-3-6/h2-5,9H,1H3
Instrument: Q Exactive Orbitrap (Thermo Scientific)
Instrument type: LC-ESI-QFT
Ms type: MS2
Ion mode: NEGATIVE
Ionization: ESI
Fragmentation mode: HCD
Collision energy: 15
Resolution: 17500
Column name: Acquity BEH C18 1.7um, 2.1x150mm (Waters)
Retention time: 14.170 min
Base peak: 151.04
Precursor m/z: 151.0401
Precursor type: [M-H]-
Precursor intensity: 23638926.18604
m/z	relative intensity	assigned
68.9982	1	C3HO2-
69.0344	1	C4H5O-
82.0061	4	C4H2O2-
91.0188	3	C6H3O-
92.0266	37	C6H4O-
95.0139	54	C5H3O2-
106.0061	3	C6H2O2-
107.0502	1	C7H7O-
108.0217	51	C6H4O2-
119.0138	8	C7H3O2-
121.0294	3	C7H5O2-
123.0088	6	C6H3O3-
136.0165	608	C7H4O3-
151.04	999	C8H7O3-
