Mass spectrum: Acetochlor; LC-ESI-QFT; MS2; CE: 15; R=17500; [M+H]+
Name: Acetochlor
Name: 2-chloro-N-(ethoxymethyl)-N-(2-ethyl-6-methylphenyl)acetamide
Formula: C14H20ClNO2
Exact mass: 269.1183
SMILES: CCOCN(C(=O)CCl)C1=C(CC)C=CC=C1C
InChI: InChI=1S/C14H20ClNO2/c1-4-12-8-6-7-11(3)14(12)16(10-18-5-2)13(17)9-15/h6-8H,4-5,9-10H2,1-3H3
Instrument: Q Exactive Orbitrap (Thermo Scientific)
Instrument type: LC-ESI-QFT
Ms type: MS2
Ion mode: POSITIVE
Ionization: ESI
Fragmentation mode: HCD
Collision energy: 15
Resolution: 17500
Column name: Acquity BEH C18 1.7um, 2.1x150mm (Waters)
Retention time: 18.208 min
Base peak: 79.0211
Precursor m/z: 270.1255
Precursor type: [M+H]+
Precursor intensity: 857963.125
m/z	relative intensity	assigned
59.0492	59	C3H7O+
95.0128	32	C5H3O2+
148.1122	54	C10H14N+
162.1278	127	C11H16N+
208.0887	38	C12H15ClN+
220.0891	19	C13H15ClN+
224.0838	265	C12H15ClNO+
238.0995	999	C13H17ClNO+
