Mass spectrum: Diisobutyl phthalate; LC-ESI-QFT; MS2; CE: 90; R=17500; [M+H]+
Name: Diisobutyl phthalate
Formula: C16H22O4
Exact mass: 278.1518
SMILES: CC(C)COC(=O)C1=C(C=CC=C1)C(=O)OCC(C)C
InChI: InChI=1S/C16H22O4/c1-11(2)9-19-15(17)13-7-5-6-8-14(13)16(18)20-10-12(3)4/h5-8,11-12H,9-10H2,1-4H3
Instrument: Q Exactive Orbitrap (Thermo Scientific)
Instrument type: LC-ESI-QFT
Ms type: MS2
Ion mode: POSITIVE
Ionization: ESI
Fragmentation mode: HCD
Collision energy: 90
Resolution: 17500
Column name: Acquity BEH C18 1.7um, 2.1x150mm (Waters)
Retention time: 19.148 min
Base peak: 79.0211
Precursor m/z: 279.1591
Precursor type: [M+H]+
Precursor intensity: 11605239.8125
m/z	relative intensity	assigned
53.0387	427	C4H5+
57.0699	176	C4H9+
65.0386	185	C5H5+
91.0544	410	C7H7+
95.0492	999	C6H7O+
109.0649	231	C7H9O+
115.054	90	C9H7+
117.0699	110	C9H9+
121.0286	171	C7H5O2+
128.062	300	C10H8+
129.0699	171	C10H9+
149.0234	174	C8H5O3+
154.0775	137	C12H10+
165.0699	257	C13H9+
178.0778	382	C14H10+
