Mass spectrum: Fenoxycarb; LC-ESI-QFT; MS2; CE: 60; R=17500; [M+H]+
Name: Fenoxycarb
Name: ethyl N-[2-(4-phenoxyphenoxy)ethyl]carbamate
Formula: C17H19NO4
Exact mass: 301.1314
SMILES: CCOC(=O)NCCOC1=CC=C(OC2=CC=CC=C2)C=C1
InChI: InChI=1S/C17H19NO4/c1-2-20-17(19)18-12-13-21-14-8-10-16(11-9-14)22-15-6-4-3-5-7-15/h3-11H,2,12-13H2,1H3,(H,18,19)
Instrument: Q Exactive Orbitrap (Thermo Scientific)
Instrument type: LC-ESI-QFT
Ms type: MS2
Ion mode: POSITIVE
Ionization: ESI
Fragmentation mode: HCD
Collision energy: 60
Resolution: 17500
Column name: Acquity BEH C18 1.7um, 2.1x150mm (Waters)
Retention time: 17.024 min
Base peak: 79.0211
Precursor m/z: 302.1387
Precursor type: [M+H]+
Precursor intensity: 27485421.65625
m/z	relative intensity	assigned
53.0022	1	C3HO+
83.0127	4	C4H3O2+
95.0127	999	C5H3O2+
105.0699	1	C8H9+
146.0965	1	C10H12N+
148.0757	1	C9H10NO+
186.0914	1	C12H12NO+
242.1174	2	C15H16NO2+
