Mass spectrum: 17alpha-Hydroxyprogesterone; LC-ESI-QFT; MS2; CE: 45; R=17500; [M+H]+
Name: 17alpha-Hydroxyprogesterone
Name: (8R,9S,10R,13S,14S,17R)-17-acetyl-17-hydroxy-10,13-dimethyl-2,6,7,8,9,11,12,14,15,16-decahydro-1H-cyclopenta[a]phenanthren-3-one
Formula: C21H30O3
Exact mass: 330.2195
SMILES: CC(=O)[C@@]1(O)CC[C@H]2[C@@H]3CCC4=CC(=O)CC[C@]4(C)[C@H]3CC[C@]12C
InChI: InChI=1S/C21H30O3/c1-13(22)21(24)11-8-18-16-5-4-14-12-15(23)6-9-19(14,2)17(16)7-10-20(18,21)3/h12,16-18,24H,4-11H2,1-3H3/t16-,17+,18+,19+,20+,21+/m1/s1
Instrument: Q Exactive Orbitrap (Thermo Scientific)
Instrument type: LC-ESI-QFT
Ms type: MS2
Ion mode: POSITIVE
Ionization: ESI
Fragmentation mode: HCD
Collision energy: 45
Resolution: 17500
Column name: Acquity BEH C18 1.7um, 2.1x150mm (Waters)
Retention time: 17.852 min
Base peak: 79.0211
Precursor m/z: 331.2268
Precursor type: [M+H]+
Precursor intensity: 3949813.25
m/z	relative intensity	assigned
55.0179	5	C3H3O+
55.0543	4	C4H7+
57.0335	1	C3H5O+
59.0492	1	C3H7O+
61.0284	2	C2H5O2+
65.0388	1	C5H5+
67.0542	11	C5H7+
69.0335	3	C4H5O+
69.0698	11	C5H9+
71.049	2	C4H7O+
79.0542	42	C6H7+
81.0699	58	C6H9+
83.0492	57	C5H7O+
85.0648	9	C5H9O+
87.0441	5	C4H7O2+
91.0542	14	C7H7+
93.07	34	C7H9+
95.0493	6	C6H7O+
95.0856	57	C7H11+
97.0649	999	C6H9O+
99.044	2	C5H7O2+
99.0804	8	C6H11O+
105.0335	1	C7H5O+
105.0699	33	C8H9+
107.049	4	C7H7O+
107.0856	37	C8H11+
109.0649	930	C7H9O+
111.0804	20	C7H11O+
117.0697	7	C9H9+
119.0856	42	C9H11+
121.0648	25	C8H9O+
121.1012	35	C9H13+
123.0805	110	C8H11O+
127.0754	2	C7H11O2+
129.0697	9	C10H9+
131.0856	29	C10H11+
133.1013	40	C10H13+
135.0804	19	C9H11O+
135.1168	16	C10H15+
137.0962	32	C9H13O+
139.1114	1	C9H15O+
141.0699	3	C11H9+
143.0856	25	C11H11+
145.1013	71	C11H13+
147.0804	8	C10H11O+
147.1168	45	C11H15+
149.0962	23	C10H13O+
149.1326	11	C11H17+
151.1118	7	C10H15O+
155.0855	10	C12H11+
157.1013	39	C12H13+
159.1169	59	C12H15+
160.1244	2	C12H16+
161.0962	9	C11H13O+
161.1326	36	C12H17+
163.1118	66	C11H15O+
163.148	6	C12H19+
167.0856	3	C13H11+
169.1012	22	C13H13+
171.1168	49	C13H15+
173.0961	5	C12H13O+
173.1326	41	C13H17+
175.1118	20	C12H15O+
175.1482	32	C13H19+
177.1275	32	C12H17O+
181.1011	7	C14H13+
183.117	22	C14H15+
184.1245	1	C14H16+
185.1325	31	C14H17+
187.1118	9	C13H15O+
187.1482	24	C14H19+
189.1274	18	C13H17O+
189.1638	6	C14H21+
191.1434	6	C13H19O+
195.1169	9	C15H15+
197.1327	30	C15H17+
199.1117	4	C14H15O+
199.1483	28	C15H19+
201.1276	8	C14H17O+
201.1644	6	C15H21+
203.1431	12	C14H19O+
205.1588	14	C14H21O+
207.1167	3	C16H15+
209.133	7	C16H17+
211.1482	27	C16H19+
212.1556	2	C16H20+
213.1271	6	C15H17O+
213.1639	31	C16H21+
215.1438	7	C15H19O+
217.1588	10	C15H21O+
221.1323	5	C17H17+
223.1492	6	C17H19+
225.1274	2	C16H17O+
225.1639	14	C17H21+
227.143	4	C16H19O+
227.1791	6	C17H23+
229.1583	8	C16H21O+
231.174	2	C16H23O+
235.1478	5	C18H19+
237.1636	18	C18H21+
239.1424	5	C17H19O+
239.1794	3	C18H23+
241.1585	6	C17H21O+
243.1745	6	C17H23O+
249.163	2	C19H21+
251.1793	6	C19H23+
252.1871	9	C19H24+
253.1585	4	C18H21O+
253.1952	53	C19H25+
255.1743	14	C18H23O+
257.1907	2	C18H25O+
259.1694	3	C17H23O2+
267.175	1	C19H23O+
267.2103	5	C20H27+
269.19	10	C19H25O+
270.1985	9	C19H26O+
271.2057	31	C19H27O+
277.195	7	C21H25+
287.2007	1	C19H27O2+
289.2161	2	C19H29O2+
295.2059	28	C21H27O+
313.2164	21	C21H29O2+
331.2262	10	C21H31O3+
