Mass spectrum: N-Phenyl-2-naphthylamine; LC-ESI-QFT; MS2; CE: 75; R=17500; [M+H]+
Name: N-Phenyl-2-naphthylamine
Name: N-phenylnaphthalen-2-amine
Formula: C16H13N
Exact mass: 219.1048
SMILES: N(C1=CC=CC=C1)C1=CC=C2C=CC=CC2=C1
InChI: InChI=1S/C16H13N/c1-2-8-15(9-3-1)17-16-11-10-13-6-4-5-7-14(13)12-16/h1-12,17H
Instrument: Q Exactive Orbitrap (Thermo Scientific)
Instrument type: LC-ESI-QFT
Ms type: MS2
Ion mode: POSITIVE
Ionization: ESI
Fragmentation mode: HCD
Collision energy: 75
Resolution: 17500
Column name: Acquity BEH C18 1.7um, 2.1x150mm (Waters)
Retention time: 19.199 min
Base peak: 79.0212
Precursor m/z: 220.1121
Precursor type: [M+H]+
Precursor intensity: 14399547.625
m/z	relative intensity	assigned
63.023	1	C5H3+
65.0386	256	C5H5+
66.0464	2	C5H6+
67.0542	1	C5H7+
91.0543	3	C7H7+
92.0495	434	C6H6N+
93.0573	97	C6H7N+
103.0542	3	C8H7+
104.0494	4	C7H6N+
115.0543	387	C9H7+
116.062	25	C9H8+
117.0574	1	C8H7N+
117.0699	4	C9H9+
127.054	5	C10H7+
128.0621	421	C10H8+
142.0653	44	C10H8N+
143.073	999	C10H9N+
153.0701	1	C12H9+
165.0701	2	C13H9+
178.0778	12	C14H10+
179.0855	1	C14H11+
191.073	1	C14H9N+
191.085	1	C15H11+
192.094	1	C15H12+
193.0887	1	C14H11N+
193.1011	1	C15H13+
202.0778	48	C16H10+
203.0856	20	C16H11+
204.081	49	C15H10N+
204.0928	4	C16H12+
205.0885	12	C15H11N+
217.0885	9	C16H11N+
218.0966	27	C16H12N+
219.1045	29	C16H13N+
220.1121	17	C16H14N+
