Mass spectrum: Phenyl salicylate; LC-ESI-QFT; MS2; CE: 15; R=17500; [M-H]-
Name: Phenyl salicylate
Name: phenyl 2-hydroxybenzoate
Formula: C13H10O3
Exact mass: 214.0630
SMILES: OC1=C(C=CC=C1)C(=O)OC1=CC=CC=C1
InChI: InChI=1S/C13H10O3/c14-12-9-5-4-8-11(12)13(15)16-10-6-2-1-3-7-10/h1-9,14H
Instrument: Q Exactive Orbitrap (Thermo Scientific)
Instrument type: LC-ESI-QFT
Ms type: MS2
Ion mode: NEGATIVE
Ionization: ESI
Fragmentation mode: HCD
Collision energy: 15
Resolution: 17500
Column name: Acquity BEH C18 1.7um, 2.1x150mm (Waters)
Retention time: 17.076 min
Base peak: 213.0557
Precursor m/z: 213.0557
Precursor type: [M-H]-
Precursor intensity: 127616656.7813
m/z	relative intensity	assigned
91.0188	6	C6H3O-
93.0346	464	C6H5O-
135.0087	58	C7H3O3-
169.0659	19	C12H9O-
213.0556	999	C13H9O3-
