Mass spectrum: Theophylline; LC-ESI-QFT; MS2; CE: 30; R=17500; [M-H]-
Name: Theophylline
Name: 1,3-dimethyl-7H-purine-2,6-dione
Formula: C7H8N4O2
Exact mass: 180.0647
SMILES: CN1C2=C(NC=N2)C(=O)N(C)C1=O
InChI: InChI=1S/C7H8N4O2/c1-10-5-4(8-3-9-5)6(12)11(2)7(10)13/h3H,1-2H3,(H,8,9)
Instrument: Q Exactive Orbitrap (Thermo Scientific)
Instrument type: LC-ESI-QFT
Ms type: MS2
Ion mode: NEGATIVE
Ionization: ESI
Fragmentation mode: HCD
Collision energy: 30
Resolution: 17500
Column name: Acquity BEH C18 1.7um, 2.1x150mm (Waters)
Retention time: 10.138 min
Base peak: 171.0121
Precursor m/z: 179.0574
Precursor type: [M-H]-
Precursor intensity: 12852312.97656
m/z	relative intensity	assigned
94.041	1	C4H4N3-
122.036	33	C5H4N3O-
140.0465	10	C5H6N3O2-
164.034	127	C6H4N4O2-
179.0574	999	C7H7N4O2-
