Mass spectrum: Diphenyl isophthalate; LC-ESI-QFT; MS2; CE: 60; R=17500; [M+H]+
Name: Diphenyl isophthalate
Name: diphenyl benzene-1,3-dicarboxylate
Formula: C20H14O4
Exact mass: 318.0892
SMILES: O=C(OC1=CC=CC=C1)C1=CC(=CC=C1)C(=O)OC1=CC=CC=C1
InChI: InChI=1S/C20H14O4/c21-19(23-17-10-3-1-4-11-17)15-8-7-9-16(14-15)20(22)24-18-12-5-2-6-13-18/h1-14H
Instrument: Q Exactive Orbitrap (Thermo Scientific)
Instrument type: LC-ESI-QFT
Ms type: MS2
Ion mode: POSITIVE
Ionization: ESI
Fragmentation mode: HCD
Collision energy: 60
Resolution: 17500
Column name: Acquity BEH C18 1.7um, 2.1x150mm (Waters)
Retention time: 15.346 min
Base peak: 79.0211
Precursor m/z: 319.0965
Precursor type: [M+H]+
Precursor intensity: 8323612.875
m/z	relative intensity	assigned
51.0229	1	C4H3+
53.0386	27	C4H5+
55.0178	5	C3H3O+
65.0385	2	C5H5+
68.9971	1	C3HO2+
77.0384	10	C6H5+
81.0336	2	C5H5O+
94.0413	1	C6H6O+
95.0491	78	C6H7O+
103.0541	5	C8H7+
105.0335	467	C7H5O+
111.044	2	C6H7O2+
115.0542	45	C9H7+
119.0128	20	C7H3O2+
121.0284	59	C7H5O2+
127.0542	26	C10H7+
129.0335	3	C9H5O+
133.0286	1	C8H5O2+
141.0698	542	C11H9+
143.0492	1	C10H7O+
145.0648	21	C10H9O+
149.023	1	C8H5O3+
151.0542	14	C12H7+
152.0621	105	C12H8+
153.0698	144	C12H9+
155.0492	20	C11H7O+
168.0571	15	C12H8O+
169.0648	305	C12H9O+
179.0491	39	C13H7O+
181.0647	18	C13H9O+
183.044	35	C12H7O2+
196.0521	1	C13H8O2+
197.0597	650	C13H9O2+
202.0774	3	C16H10+
207.0441	30	C14H7O2+
215.0856	1	C17H11+
218.0727	1	C16H10O+
225.0546	999	C14H9O3+
226.0776	7	C18H10+
227.0851	5	C18H11+
231.0803	3	C17H11O+
232.088	1	C17H12O+
244.089	1	C18H12O+
245.0953	2	C18H13O+
255.0805	22	C19H11O+
256.0881	2	C19H12O+
271.0754	2	C19H11O2+
273.0909	4	C19H13O2+
283.0754	6	C20H11O2+
284.0829	8	C20H12O2+
300.0779	2	C20H12O3+
301.0862	1	C20H13O3+
