Mass spectrum: Methylparaben; LC-ESI-QFT; MS2; CE: 60; R=17500; [M-H]-
Name: Methylparaben
Name: methyl 4-hydroxybenzoate
Formula: C8H8O3
Exact mass: 152.0473
SMILES: COC(=O)C1=CC=C(O)C=C1
InChI: InChI=1S/C8H8O3/c1-11-8(10)6-2-4-7(9)5-3-6/h2-5,9H,1H3
Instrument: Q Exactive Orbitrap (Thermo Scientific)
Instrument type: LC-ESI-QFT
Ms type: MS2
Ion mode: NEGATIVE
Ionization: ESI
Fragmentation mode: HCD
Collision energy: 60
Resolution: 17500
Column name: Acquity BEH C18 1.7um, 2.1x150mm (Waters)
Retention time: 14.170 min
Base peak: 151.04
Precursor m/z: 151.0401
Precursor type: [M-H]-
Precursor intensity: 22939017.51758
m/z	relative intensity	assigned
53.0033	3	C3HO-
67.019	7	C4H3O-
68.9982	20	C3HO2-
69.0346	18	C4H5O-
70.0061	8	C3H2O2-
71.0139	14	C3H3O2-
72.9931	7	C2HO3-
78.011	3	C5H2O-
79.0189	7	C5H3O-
79.9903	10	C4O2-
80.9982	7	C4HO2-
82.006	72	C4H2O2-
91.0189	117	C6H3O-
92.0267	395	C6H4O-
93.0346	9	C6H5O-
95.0138	823	C5H3O2-
97.0296	11	C5H5O2-
98.001	2	C4H2O3-
106.006	42	C6H2O2-
107.0138	5	C6H3O2-
107.0502	9	C7H7O-
108.0217	766	C6H4O2-
109.0292	3	C6H5O2-
119.0139	41	C7H3O2-
121.0295	35	C7H5O2-
123.0088	102	C6H3O3-
136.0165	999	C7H4O3-
151.04	438	C8H7O3-
