Mass spectrum: Isoprocarb; LC-ESI-QFT; MS2; CE: 75; R=17500; [M+H]+
Name: Isoprocarb
Name: (2-propan-2-ylphenyl) N-methylcarbamate
Formula: C11H15NO2
Exact mass: 193.1103
SMILES: CNC(=O)OC1=C(C=CC=C1)C(C)C
InChI: InChI=1S/C11H15NO2/c1-8(2)9-6-4-5-7-10(9)14-11(13)12-3/h4-8H,1-3H3,(H,12,13)
Instrument: Q Exactive Orbitrap (Thermo Scientific)
Instrument type: LC-ESI-QFT
Ms type: MS2
Ion mode: POSITIVE
Ionization: ESI
Fragmentation mode: HCD
Collision energy: 75
Resolution: 17500
Column name: Acquity BEH C18 1.7um, 2.1x150mm (Waters)
Retention time: 17.718 min
Base peak: 79.0212
Precursor m/z: 194.1176
Precursor type: [M+H]+
Precursor intensity: 14909051.25
m/z	relative intensity	assigned
65.0386	1	C5H5+
79.0542	9	C6H7+
82.0651	1	C5H8N+
95.0491	1	C6H7O+
106.0651	38	C7H8N+
107.0729	64	C7H9N+
119.0728	1	C8H9N+
120.0808	10	C8H10N+
121.0886	9	C8H11N+
122.0964	6	C8H12N+
124.0757	1	C7H10NO+
134.06	684	C8H8NO+
135.0678	6	C8H9NO+
136.076	2	C8H10NO+
148.0759	5	C9H10NO+
150.0551	203	C8H8NO2+
151.0627	999	C8H9NO2+
160.0757	1	C10H10NO+
164.0705	24	C9H10NO2+
166.0862	86	C9H12NO2+
178.0861	6	C10H12NO2+
179.094	58	C10H13NO2+
194.1172	2	C11H16NO2+
