Mass spectrum: Carabersat; LC-ESI-QFT; MS2; CE: 60; R=17500; [M+H]+
Name: Carabersat
Name: N-[(3R,4S)-6-acetyl-3-hydroxy-2,2-dimethyl-3,4-dihydrochromen-4-yl]-4-fluorobenzamide
Formula: C20H20FNO4
Exact mass: 357.1376
SMILES: CC(=O)C1=CC2=C(OC(C)(C)[C@H](O)[C@H]2NC(=O)C2=CC=C(F)C=C2)C=C1
InChI: InChI=1S/C20H20FNO4/c1-11(23)13-6-9-16-15(10-13)17(18(24)20(2,3)26-16)22-19(25)12-4-7-14(21)8-5-12/h4-10,17-18,24H,1-3H3,(H,22,25)/t17-,18+/m0/s1
Instrument: Q Exactive Orbitrap (Thermo Scientific)
Instrument type: LC-ESI-QFT
Ms type: MS2
Ion mode: POSITIVE
Ionization: ESI
Fragmentation mode: HCD
Collision energy: 60
Resolution: 17500
Column name: Acquity BEH C18 1.7um, 2.1x150mm (Waters)
Retention time: 15.694 min
Base peak: 79.0212
Precursor m/z: 358.1449
Precursor type: [M+H]+
Precursor intensity: 12295266.25
m/z	relative intensity	assigned
55.0543	4	C4H7+
59.0492	999	C3H7O+
71.0292	3	C4H4F+
74.0966	3	C4H12N+
79.0542	6	C6H7+
91.0543	32	C7H7+
93.07	11	C7H9+
95.0292	2	C6H4F+
95.0492	9	C6H7O+
97.0449	26	C6H6F+
105.0699	10	C8H9+
107.0492	229	C7H7O+
113.0396	20	C6H6FO+
115.0543	2	C9H7+
119.0493	21	C8H7O+
119.0856	5	C9H11+
121.0286	12	C7H5O2+
121.0648	44	C8H9O+
123.0241	650	C7H4FO+
129.0699	4	C10H9+
131.0492	6	C9H7O+
131.0856	41	C10H11+
133.0648	28	C9H9O+
134.0359	3	C8H6O2+
135.0443	8	C8H7O2+
135.0805	75	C9H11O+
140.0507	162	C7H7FNO+
141.07	7	C11H9+
144.0571	15	C10H8O+
147.0804	10	C10H11O+
149.0598	293	C9H9O2+
158.0725	4	C11H10O+
159.0805	104	C11H11O+
161.0598	60	C10H9O2+
163.039	21	C9H7O3+
163.0755	6	C10H11O2+
165.0547	99	C9H9O3+
169.0764	4	C5H12FNO4+
173.06	26	C11H9O2+
175.0757	5	C11H11O2+
177.0911	636	C11H13O2+
181.0497	10	C9H9O4+
201.0911	90	C13H13O2+
219.1015	24	C13H15O3+
