Mass spectrum: 4-Aminobenzoic acid; LC-ESI-QFT; MS2; CE: 30; R=17500; [M-H]-
Name: 4-Aminobenzoic acid
Formula: C7H7NO2
Exact mass: 137.0477
SMILES: NC1=CC=C(C=C1)C(O)=O
InChI: InChI=1S/C7H7NO2/c8-6-3-1-5(2-4-6)7(9)10/h1-4H,8H2,(H,9,10)
Instrument: Q Exactive Orbitrap (Thermo Scientific)
Instrument type: LC-ESI-QFT
Ms type: MS2
Ion mode: NEGATIVE
Ionization: ESI
Fragmentation mode: HCD
Collision energy: 30
Resolution: 17500
Column name: Acquity BEH C18 1.7um, 2.1x150mm (Waters)
Retention time: 12.151 min
Base peak: 116.9285
Precursor m/z: 136.0404
Precursor type: [M-H]-
Precursor intensity: 297629.0722656
m/z	relative intensity	assigned
92.0506	999	C6H6N-
136.0402	82	C7H6NO2-
