Mass spectrum: Methyl 2,4-dihydroxy-3,6-dimethylbenzoate; LC-ESI-QFT; MS2; CE: 15; R=17500; [M+H]+
Name: Methyl 2,4-dihydroxy-3,6-dimethylbenzoate
Formula: C10H12O4
Exact mass: 196.0736
SMILES: COC(=O)C1=C(O)C(C)=C(O)C=C1C
InChI: InChI=1S/C10H12O4/c1-5-4-7(11)6(2)9(12)8(5)10(13)14-3/h4,11-12H,1-3H3
Instrument: Q Exactive Orbitrap (Thermo Scientific)
Instrument type: LC-ESI-QFT
Ms type: MS2
Ion mode: POSITIVE
Ionization: ESI
Fragmentation mode: HCD
Collision energy: 15
Resolution: 17500
Column name: Acquity BEH C18 1.7um, 2.1x150mm (Waters)
Retention time: 14.095 min
Base peak: 79.0211
Precursor m/z: 197.0808
Precursor type: [M+H]+
Precursor intensity: 2544222.5
m/z	relative intensity	assigned
109.0647	2	C7H9O+
123.0441	2	C7H7O2+
137.0597	1	C8H9O2+
138.0676	115	C8H10O2+
139.0391	1	C7H7O3+
139.0755	16	C8H11O2+
154.0625	181	C8H10O3+
167.0704	53	C9H11O3+
169.086	570	C9H13O3+
182.0575	29	C9H10O4+
197.081	999	C10H13O4+
