Mass spectrum: Cortisone; LC-ESI-QFT; MS2; CE: 60; R=17500; [M+H]+
Name: Cortisone
Name: (8S,9S,10R,13S,14S,17R)-17-hydroxy-17-(2-hydroxyacetyl)-10,13-dimethyl-1,2,6,7,8,9,12,14,15,16-decahydrocyclopenta[a]phenanthrene-3,11-dione
Formula: C21H28O5
Exact mass: 360.1937
SMILES: C[C@]12CC(=O)[C@H]3[C@@H](CCC4=CC(=O)CC[C@]34C)[C@@H]1CC[C@]2(O)C(=O)CO
InChI: InChI=1S/C21H28O5/c1-19-7-5-13(23)9-12(19)3-4-14-15-6-8-21(26,17(25)11-22)20(15,2)10-16(24)18(14)19/h9,14-15,18,22,26H,3-8,10-11H2,1-2H3/t14-,15-,18+,19-,20-,21-/m0/s1
Instrument: Q Exactive Orbitrap (Thermo Scientific)
Instrument type: LC-ESI-QFT
Ms type: MS2
Ion mode: POSITIVE
Ionization: ESI
Fragmentation mode: HCD
Collision energy: 60
Resolution: 17500
Column name: Acquity BEH C18 1.7um, 2.1x150mm (Waters)
Retention time: 19.659 min
Base peak: 79.0211
Precursor m/z: 361.201
Precursor type: [M+H]+
Precursor intensity: 22063586
m/z	relative intensity	assigned
57.0699	142	C4H9+
68.9971	641	C3HO2+
87.0076	189	C3H3O3+
111.0078	187	C5H3O3+
119.0858	134	C9H11+
129.0183	999	C5H5O4+
139.0027	211	C6H3O4+
218.093	150	C13H14O3+
