Mass spectrum: S-Metolachlor; LC-ESI-QFT; MS2; CE: 30; R=17500; [M+H]+
Name: S-Metolachlor
Name: 2-chloro-N-(2-ethyl-6-methylphenyl)-N-[(2S)-1-methoxypropan-2-yl]acetamide
Formula: C15H22ClNO2
Exact mass: 283.1339
SMILES: CCC1=C(N([C@@H](C)COC)C(=O)CCl)C(C)=CC=C1
InChI: InChI=1S/C15H22ClNO2/c1-5-13-8-6-7-11(2)15(13)17(14(18)9-16)12(3)10-19-4/h6-8,12H,5,9-10H2,1-4H3/t12-/m0/s1
Instrument: Q Exactive Orbitrap (Thermo Scientific)
Instrument type: LC-ESI-QFT
Ms type: MS2
Ion mode: POSITIVE
Ionization: ESI
Fragmentation mode: HCD
Collision energy: 30
Resolution: 17500
Column name: Acquity BEH C18 1.7um, 2.1x150mm (Waters)
Retention time: 18.173 min
Base peak: 79.0211
Precursor m/z: 284.1412
Precursor type: [M+H]+
Precursor intensity: 26054953.75
m/z	relative intensity	assigned
73.0648	44	C4H9O+
146.0967	1	C10H12N+
158.0964	1	C11H12N+
160.1125	1	C11H14N+
174.128	1	C12H16N+
176.1435	73	C12H18N+
212.0838	21	C11H15ClNO+
252.115	999	C14H19ClNO+
284.1414	8	C15H23ClNO2+
