Mass spectrum: 1-Naphthol; LC-ESI-QFT; MS2; CE: 15; R=17500; [M+H]+
Name: 1-Naphthol
Name: naphthalen-1-ol
Formula: C10H8O
Exact mass: 144.0575
SMILES: OC1=CC=CC2=CC=CC=C12
InChI: InChI=1S/C10H8O/c11-10-7-3-5-8-4-1-2-6-9(8)10/h1-7,11H
Instrument: Q Exactive Orbitrap (Thermo Scientific)
Instrument type: LC-ESI-QFT
Ms type: MS2
Ion mode: POSITIVE
Ionization: ESI
Fragmentation mode: HCD
Collision energy: 15
Resolution: 17500
Column name: Acquity BEH C18 1.7um, 2.1x150mm (Waters)
Retention time: 15.689 min
Base peak: 79.0211
Precursor m/z: 145.0648
Precursor type: [M+H]+
Precursor intensity: 15270772.25
m/z	relative intensity	assigned
91.0541	2	C7H7+
103.0542	19	C8H7+
115.0541	9	C9H7+
117.0698	204	C9H9+
127.0541	9	C10H7+
144.057	2	C10H8O+
145.0646	999	C10H9O+
