Mass spectrum: Diphenyl isophthalate; LC-ESI-QFT; MS2; CE: 60; R=17500; [M-H]-
Name: Diphenyl isophthalate
Name: diphenyl benzene-1,3-dicarboxylate
Formula: C20H14O4
Exact mass: 318.0892
SMILES: O=C(OC1=CC=CC=C1)C1=CC(=CC=C1)C(=O)OC1=CC=CC=C1
InChI: InChI=1S/C20H14O4/c21-19(23-17-10-3-1-4-11-17)15-8-7-9-16(14-15)20(22)24-18-12-5-2-6-13-18/h1-14H
Instrument: Q Exactive Orbitrap (Thermo Scientific)
Instrument type: LC-ESI-QFT
Ms type: MS2
Ion mode: NEGATIVE
Ionization: ESI
Fragmentation mode: HCD
Collision energy: 60
Resolution: 17500
Column name: Acquity BEH C18 1.7um, 2.1x150mm (Waters)
Retention time: 15.329 min
Base peak: 259.0087
Precursor m/z: 317.0819
Precursor type: [M-H]-
Precursor intensity: 6931808.822754
m/z	relative intensity	assigned
65.0397	8	C5H5-
93.0346	999	C6H5O-
151.0555	2	C12H7-
169.0661	2	C12H9O-
180.0582	15	C13H8O-
195.0451	18	C13H7O2-
197.0608	12	C13H9O2-
204.0587	1	C15H8O-
205.0659	6	C15H9O-
223.0401	13	C14H7O3-
230.0733	1	C17H10O-
243.0813	23	C18H11O-
244.0896	4	C18H12O-
245.0968	3	C18H13O-
271.0765	31	C19H11O2-
272.0843	23	C19H12O2-
273.0917	1	C19H13O2-
