Mass spectrum: Methyl 2,4-dihydroxy-3,6-dimethylbenzoate; LC-ESI-QFT; MS2; CE: 75; R=17500; [M+H]+
Name: Methyl 2,4-dihydroxy-3,6-dimethylbenzoate
Formula: C10H12O4
Exact mass: 196.0736
SMILES: COC(=O)C1=C(O)C(C)=C(O)C=C1C
InChI: InChI=1S/C10H12O4/c1-5-4-7(11)6(2)9(12)8(5)10(13)14-3/h4,11-12H,1-3H3
Instrument: Q Exactive Orbitrap (Thermo Scientific)
Instrument type: LC-ESI-QFT
Ms type: MS2
Ion mode: POSITIVE
Ionization: ESI
Fragmentation mode: HCD
Collision energy: 75
Resolution: 17500
Column name: Acquity BEH C18 1.7um, 2.1x150mm (Waters)
Retention time: 14.095 min
Base peak: 79.0211
Precursor m/z: 197.0808
Precursor type: [M+H]+
Precursor intensity: 2997675.75
m/z	relative intensity	assigned
53.0023	3	C3HO+
53.0386	29	C4H5+
55.0179	9	C3H3O+
55.0542	15	C4H7+
65.0386	121	C5H5+
66.0464	32	C5H6+
67.0542	41	C5H7+
68.0257	9	C4H4O+
68.997	21	C3HO2+
69.0334	11	C4H5O+
77.0386	5	C6H5+
78.0465	56	C6H6+
79.018	9	C5H3O+
79.0542	64	C6H7+
81.0335	33	C5H5O+
81.0699	25	C6H9+
83.0492	73	C5H7O+
85.0284	5	C4H5O2+
91.0544	4	C7H7+
92.0257	12	C6H4O+
93.0336	45	C6H5O+
94.0413	41	C6H6O+
95.0492	250	C6H7O+
96.0209	5	C5H4O2+
96.057	75	C6H8O+
97.0285	27	C5H5O2+
97.0649	30	C6H9O+
105.0336	9	C7H5O+
106.0415	3	C7H6O+
107.0128	19	C6H3O2+
107.0492	10	C7H7O+
108.057	68	C7H8O+
109.0285	65	C6H5O2+
109.0649	184	C7H9O+
110.0362	16	C6H6O2+
111.0441	646	C6H7O2+
121.0286	28	C7H5O2+
122.0363	46	C7H6O2+
123.0441	999	C7H7O2+
124.052	135	C7H8O2+
125.0598	126	C7H9O2+
126.0676	58	C7H10O2+
135.0441	4	C8H7O2+
137.0232	7	C7H5O3+
137.0599	15	C8H9O2+
138.0677	752	C8H10O2+
139.0391	752	C7H7O3+
139.0753	68	C8H11O2+
149.0233	7	C8H5O3+
151.0391	5	C8H7O3+
152.0466	3	C8H8O3+
153.0547	47	C8H9O3+
154.0625	239	C8H10O3+
155.0343	4	C7H7O4+
155.0704	4	C8H11O3+
167.034	313	C8H7O4+
169.086	34	C9H13O3+
181.0496	3	C9H9O4+
182.0575	21	C9H10O4+
195.0652	3	C10H11O4+
