Mass spectrum: 7-(Dimethylamino)-4-methylcoumarin; LC-ESI-QFT; MS2; CE: 15; R=17500; [M+H]+
Name: 7-(Dimethylamino)-4-methylcoumarin
Name: 7-(dimethylamino)-4-methylchromen-2-one
Formula: C12H13NO2
Exact mass: 203.0946
SMILES: CN(C)C1=CC2=C(C=C1)C(C)=CC(=O)O2
InChI: InChI=1S/C12H13NO2/c1-8-6-12(14)15-11-7-9(13(2)3)4-5-10(8)11/h4-7H,1-3H3
Instrument: Q Exactive Orbitrap (Thermo Scientific)
Instrument type: LC-ESI-QFT
Ms type: MS2
Ion mode: POSITIVE
Ionization: ESI
Fragmentation mode: HCD
Collision energy: 15
Resolution: 17500
Column name: Acquity BEH C18 1.7um, 2.1x150mm (Waters)
Retention time: 16.284 min
Base peak: 79.0211
Precursor m/z: 204.1019
Precursor type: [M+H]+
Precursor intensity: 31892890.75
m/z	relative intensity	assigned
160.1122	1	C11H14N+
189.0781	3	C11H11NO2+
204.1017	999	C12H14NO2+
