Mass spectrum: Aminoglutethimide; LC-ESI-QFT; MS2; CE: 90; R=17500; [M+H]+
Name: Aminoglutethimide
Name: 3-(4-aminophenyl)-3-ethylpiperidine-2,6-dione
Formula: C13H16N2O2
Exact mass: 232.1212
SMILES: CCC1(CCC(=O)NC1=O)C1=CC=C(N)C=C1
InChI: InChI=1S/C13H16N2O2/c1-2-13(8-7-11(16)15-12(13)17)9-3-5-10(14)6-4-9/h3-6H,2,7-8,14H2,1H3,(H,15,16,17)
Instrument: Q Exactive Orbitrap (Thermo Scientific)
Instrument type: LC-ESI-QFT
Ms type: MS2
Ion mode: POSITIVE
Ionization: ESI
Fragmentation mode: HCD
Collision energy: 90
Resolution: 17500
Column name: Acquity BEH C18 1.7um, 2.1x150mm (Waters)
Retention time: 13.560 min
Base peak: 79.0211
Precursor m/z: 233.1285
Precursor type: [M+H]+
Precursor intensity: 7662668.53125
m/z	relative intensity	assigned
72.0444	23	C3H6NO+
77.0385	2	C6H5+
78.0464	17	C6H6+
79.0541	3	C6H7+
80.0494	8	C5H6N+
86.06	5	C4H8NO+
91.0542	60	C7H7+
95.0492	8	C6H7O+
103.0542	21	C8H7+
104.0494	12	C7H6N+
104.0621	23	C8H8+
105.0574	12	C7H7N+
106.0651	5	C7H8N+
107.0493	7	C7H7O+
108.0569	7	C7H8O+
115.0543	169	C9H7+
116.0495	20	C8H6N+
116.0621	25	C9H8+
117.0574	39	C8H7N+
117.0699	37	C9H9+
118.0652	12	C8H8N+
120.0444	8	C7H6NO+
121.0521	5	C7H7NO+
121.0648	2	C8H9O+
128.0495	6	C9H6N+
128.0621	11	C10H8+
129.0703	5	C10H9+
130.0652	826	C9H8N+
131.073	999	C9H9N+
132.0445	21	C8H6NO+
132.0569	29	C9H8O+
133.0522	18	C8H7NO+
134.0601	21	C8H8NO+
137.0473	18	C7H7NO2+
140.0493	9	C10H6N+
141.0573	9	C10H7N+
142.0653	51	C10H8N+
143.073	487	C10H9N+
144.0444	6	C9H6NO+
144.0808	38	C10H10N+
145.065	9	C10H9O+
145.0884	3	C10H11N+
146.06	17	C9H8NO+
147.068	20	C9H9NO+
147.0802	12	C10H11O+
154.0652	14	C11H8N+
155.0606	11	C10H7N2+
155.0728	13	C11H9N+
156.0811	2	C11H10N+
158.0602	95	C10H8NO+
159.0679	733	C10H9NO+
160.0758	15	C10H10NO+
162.091	2	C10H12NO+
167.0729	3	C12H9N+
168.0806	3	C12H10N+
172.0757	5	C11H10NO+
173.0836	22	C11H11NO+
174.0914	86	C11H12NO+
183.068	12	C12H9NO+
186.0551	5	C11H8NO2+
