Mass spectrum: Secbumeton; LC-ESI-QFT; MS2; CE: 75; R=17500; [M+H]+
Name: Secbumeton
Name: 2-N-butan-2-yl-4-N-ethyl-6-methoxy-1,3,5-triazine-2,4-diamine
Formula: C10H19N5O
Exact mass: 225.1590
SMILES: CCNC1=NC(OC)=NC(NC(C)CC)=N1
InChI: InChI=1S/C10H19N5O/c1-5-7(3)12-9-13-8(11-6-2)14-10(15-9)16-4/h7H,5-6H2,1-4H3,(H2,11,12,13,14,15)
Instrument: Q Exactive Orbitrap (Thermo Scientific)
Instrument type: LC-ESI-QFT
Ms type: MS2
Ion mode: POSITIVE
Ionization: ESI
Fragmentation mode: HCD
Collision energy: 75
Resolution: 17500
Column name: Acquity BEH C18 1.7um, 2.1x150mm (Waters)
Retention time: 14.656 min
Base peak: 79.0211
Precursor m/z: 226.1662
Precursor type: [M+H]+
Precursor intensity: 84733426.1875
m/z	relative intensity	assigned
53.0023	9	C3HO+
53.9974	1	C2NO+
57.0447	531	C2H5N2+
57.0698	30	C4H9+
58.0287	77	C2H4NO+
61.0396	4	CH5N2O+
68.0243	392	C2H2N3+
69.0083	226	C2HN2O+
71.0603	114	C3H7N2+
74.0712	4	C2H8N3+
75.0552	304	C2H7N2O+
82.0399	87	C3H4N3+
83.0239	67	C3H3N2O+
85.0509	31	C2H5N4+
85.076	83	C4H9N2+
86.0348	999	C2H4N3O+
96.0556	127	C4H6N3+
97.0396	113	C4H5N2O+
99.0665	106	C3H7N4+
100.0505	784	C3H6N3O+
110.0461	29	C3H4N5+
110.0713	17	C5H8N3+
111.0303	1	C3H3N4O+
113.082	5	C4H9N4+
114.0662	117	C4H8N3O+
125.0457	8	C4H5N4O+
127.0978	2	C5H11N4+
128.0818	74	C5H10N3O+
138.0774	12	C5H8N5+
142.0723	961	C4H8N5O+
152.0929	2	C6H10N5+
153.0769	2	C6H9N4O+
168.0879	4	C6H10N5O+
170.1035	140	C6H12N5O+
184.1192	72	C7H14N5O+
226.1661	4	C10H20N5O+
