Mass spectrum: Cortisone; LC-ESI-QFT; MS2; CE: 75; R=17500; [M-H]-
Name: Cortisone
Name: (8S,9S,10R,13S,14S,17R)-17-hydroxy-17-(2-hydroxyacetyl)-10,13-dimethyl-1,2,6,7,8,9,12,14,15,16-decahydrocyclopenta[a]phenanthrene-3,11-dione
Formula: C21H28O5
Exact mass: 360.1937
SMILES: C[C@]12CC(=O)[C@H]3[C@@H](CCC4=CC(=O)CC[C@]34C)[C@@H]1CC[C@]2(O)C(=O)CO
InChI: InChI=1S/C21H28O5/c1-19-7-5-13(23)9-12(19)3-4-14-15-6-8-21(26,17(25)11-22)20(15,2)10-16(24)18(14)19/h9,14-15,18,22,26H,3-8,10-11H2,1-2H3/t14-,15-,18+,19-,20-,21-/m0/s1
Instrument: Q Exactive Orbitrap (Thermo Scientific)
Instrument type: LC-ESI-QFT
Ms type: MS2
Ion mode: NEGATIVE
Ionization: ESI
Fragmentation mode: HCD
Collision energy: 75
Resolution: 17500
Column name: Acquity BEH C18 1.7um, 2.1x150mm (Waters)
Retention time: 15.523 min
Base peak: 405.1917
Precursor m/z: 359.1864
Precursor type: [M-H]-
Precursor intensity: 1394768.96582
m/z	relative intensity	assigned
57.0346	371	C3H5O-
81.0345	21	C5H5O-
94.0424	18	C6H6O-
95.0502	79	C6H7O-
97.0658	66	C6H9O-
107.0502	178	C7H7O-
108.0216	30	C6H4O2-
109.0659	378	C7H9O-
119.0503	89	C8H7O-
121.0658	76	C8H9O-
122.0373	471	C7H6O2-
123.045	178	C7H7O2-
123.0815	90	C8H11O-
125.0609	57	C7H9O2-
135.0451	55	C8H7O2-
135.0814	77	C9H11O-
136.0529	159	C8H8O2-
137.0608	999	C8H9O2-
145.0662	20	C10H9O-
147.0451	37	C9H7O2-
147.0815	31	C10H11O-
148.0529	56	C9H8O2-
149.0608	721	C9H9O2-
151.0398	31	C8H7O3-
154.027	68	C7H6O4-
161.0968	46	C11H13O-
163.0765	27	C10H11O2-
187.0764	24	C12H11O2-
