Mass spectrum: S-Metolachlor; LC-ESI-QFT; MS2; CE: 75; R=17500; [M+H]+
Name: S-Metolachlor
Name: 2-chloro-N-(2-ethyl-6-methylphenyl)-N-[(2S)-1-methoxypropan-2-yl]acetamide
Formula: C15H22ClNO2
Exact mass: 283.1339
SMILES: CCC1=C(N([C@@H](C)COC)C(=O)CCl)C(C)=CC=C1
InChI: InChI=1S/C15H22ClNO2/c1-5-13-8-6-7-11(2)15(13)17(14(18)9-16)12(3)10-19-4/h6-8,12H,5,9-10H2,1-4H3/t12-/m0/s1
Instrument: Q Exactive Orbitrap (Thermo Scientific)
Instrument type: LC-ESI-QFT
Ms type: MS2
Ion mode: POSITIVE
Ionization: ESI
Fragmentation mode: HCD
Collision energy: 75
Resolution: 17500
Column name: Acquity BEH C18 1.7um, 2.1x150mm (Waters)
Retention time: 18.173 min
Base peak: 79.0211
Precursor m/z: 284.1412
Precursor type: [M+H]+
Precursor intensity: 21088000.25
m/z	relative intensity	assigned
53.0022	27	C3HO+
53.0387	5	C4H5+
53.9975	4	C2NO+
56.0495	15	C3H6N+
58.0652	4	C3H8N+
60.0807	11	C3H10N+
65.0385	18	C5H5+
67.0542	2	C5H7+
69.0697	3	C5H9+
73.0648	165	C4H9O+
75.9949	4	C2H3ClN+
76.9789	172	C2H2ClO+
78.0466	4	C6H6+
79.0542	40	C6H7+
81.07	8	C6H9+
91.0543	427	C7H7+
92.062	3	C7H8+
93.0573	36	C6H7N+
93.0699	74	C7H9+
94.0414	3	C6H6O+
94.0654	5	C6H8N+
95.0493	16	C6H7O+
103.0543	49	C8H7+
104.0621	29	C8H8+
105.0699	64	C8H9+
106.0652	37	C7H8N+
106.0776	4	C8H10+
107.0492	19	C7H7O+
107.073	34	C7H9N+
107.0856	47	C8H11+
108.0808	248	C7H10N+
109.0648	109	C7H9O+
115.0543	79	C9H7+
116.0619	12	C9H8+
117.0574	29	C8H7N+
117.0699	240	C9H9+
118.0651	110	C8H8N+
119.073	295	C8H9N+
119.0856	150	C9H11+
120.0808	234	C8H10N+
121.065	8	C8H9O+
121.0889	3	C8H11N+
128.0621	6	C10H8+
129.0701	20	C10H9+
130.0652	104	C9H8N+
130.0778	7	C10H10+
131.073	170	C9H9N+
131.0854	43	C10H11+
132.0808	277	C9H10N+
133.0886	715	C9H11N+
134.0964	999	C9H12N+
135.0803	18	C9H11O+
135.1042	8	C9H13N+
136.1121	18	C9H14N+
139.0311	7	C8H8Cl+
141.0698	11	C11H9+
142.0775	4	C11H10+
143.073	142	C10H9N+
144.0808	226	C10H10N+
145.0886	175	C10H11N+
146.0603	28	C9H8NO+
146.0964	452	C10H12N+
147.0679	19	C9H9NO+
147.1042	76	C10H13N+
148.0758	24	C9H10NO+
148.1121	106	C10H14N+
156.0809	5	C11H10N+
157.0886	10	C11H11N+
158.0965	182	C11H12N+
159.1043	130	C11H13N+
160.1121	349	C11H14N+
161.12	26	C11H15N+
162.0914	55	C10H12NO+
162.1279	5	C11H16N+
166.0419	20	C9H9ClN+
170.0965	3	C12H12N+
174.0915	5	C11H12NO+
174.1278	19	C12H16N+
176.1434	703	C12H18N+
178.0422	12	C10H9ClN+
182.0367	6	C9H9ClNO+
182.0734	2	C10H13ClN+
184.0524	157	C9H11ClNO+
188.1072	18	C12H14NO+
192.0573	5	C11H11ClN+
194.0731	20	C11H13ClN+
196.0527	3	C10H11ClNO+
202.1228	10	C13H16NO+
212.084	16	C11H15ClNO+
224.0839	4	C12H15ClNO+
252.115	37	C14H19ClNO+
