Mass spectrum: Carabersat; LC-ESI-QFT; MS2; CE: 75; R=17500; [M-H]-
Name: Carabersat
Name: N-[(3R,4S)-6-acetyl-3-hydroxy-2,2-dimethyl-3,4-dihydrochromen-4-yl]-4-fluorobenzamide
Formula: C20H20FNO4
Exact mass: 357.1376
SMILES: CC(=O)C1=CC2=C(OC(C)(C)[C@H](O)[C@H]2NC(=O)C2=CC=C(F)C=C2)C=C1
InChI: InChI=1S/C20H20FNO4/c1-11(23)13-6-9-16-15(10-13)17(18(24)20(2,3)26-16)22-19(25)12-4-7-14(21)8-5-12/h4-10,17-18,24H,1-3H3,(H,22,25)/t17-,18+/m0/s1
Instrument: Q Exactive Orbitrap (Thermo Scientific)
Instrument type: LC-ESI-QFT
Ms type: MS2
Ion mode: NEGATIVE
Ionization: ESI
Fragmentation mode: HCD
Collision energy: 75
Resolution: 17500
Column name: Acquity BEH C18 1.7um, 2.1x150mm (Waters)
Retention time: 15.728 min
Base peak: 356.1304
Precursor m/z: 356.1304
Precursor type: [M-H]-
Precursor intensity: 48714698.06641
m/z	relative intensity	assigned
65.0032	1	C4HO-
65.0272	1	C4H3N-
65.0398	2	C5H5-
65.9986	74	C3NO-
67.0064	1	C3HNO-
67.019	1	C4H3O-
68.9983	1	C3HO2-
75.0241	1	C6H3-
81.0346	73	C5H5O-
82.0062	2	C4H2O2-
91.019	5	C6H3O-
92.0267	8	C6H4O-
93.0346	360	C6H5O-
95.0139	26	C5H3O2-
95.0303	248	C6H4F-
98.0009	2	C4H2O3-
100.0194	3	C7H2N-
105.022	7	C6H3NO-
107.0504	3	C7H7O-
108.0217	109	C6H4O2-
109.046	2	C7H6F-
116.027	2	C8H4O-
116.0505	1	C8H6N-
117.022	27	C7H3NO-
117.0346	22	C8H5O-
118.0299	157	C7H4NO-
119.0139	4	C7H3O2-
119.0502	8	C8H7O-
120.0092	45	C6H2NO2-
120.0215	4	C7H4O2-
120.0256	21	C7H3FN-
121.0294	2	C7H5O2-
122.0247	2	C6H4NO2-
122.9964	2	C5HNO3-
123.0089	12	C6H3O3-
123.0255	2	C7H4FO-
128.0144	1	C8H2NO-
132.022	3	C8H4O2-
132.0457	3	C8H6NO-
133.0171	124	C7H3NO2-
135.0453	999	C8H7O2-
136.0406	3	C7H6NO2-
137.0409	88	C8H6FO-
138.0362	31	C7H5FNO-
139.0202	27	C7H4FO2-
139.0553	3	C11H7-
143.0504	2	C10H7O-
144.0457	2	C9H6NO-
145.0171	11	C8H3NO2-
146.0736	1	C10H10O-
147.0815	4	C10H11O-
148.0043	4	C7H2NO3-
148.0532	9	C9H8O2-
149.061	6	C9H9O2-
150.0197	2	C7H4NO3-
156.0582	2	C11H8O-
158.0612	6	C10H8NO-
159.0454	83	C10H7O2-
159.0616	5	C11H8F-
160.0406	750	C9H6NO2-
161.041	26	C10H6FO-
161.061	4	C10H9O2-
162.0562	213	C9H8NO2-
163.04	6	C9H7O3-
164.0154	5	C8H3FNO2-
166.0309	7	C8H5FNO2-
175.04	7	C10H7O3-
175.0566	52	C11H8FO-
176.0715	1	C10H10NO2-
177.0722	24	C11H10FO-
180.0429	10	C9H8O4-
183.0454	2	C12H7O2-
183.0615	2	C13H8F-
189.0922	6	C12H13O2-
193.066	3	C14H9O-
198.0483	6	C13H7FO-
199.0766	9	C13H11O2-
200.0526	1	C12H7FNO-
202.0674	2	C12H9FNO-
211.0573	2	C14H8FO-
212.0518	7	C13H7FNO-
213.0361	6	C13H6FO2-
214.0312	2	C12H5FNO2-
214.0678	3	C13H9FNO-
215.0517	3	C13H8FO2-
216.0466	2	C12H7FNO2-
229.067	2	C14H10FO2-
233.0606	3	C16H9O2-
234.0556	1	C15H8NO2-
236.0725	1	C12H11FNO3-
238.0316	1	C14H5FNO2-
239.039	2	C14H6FNO2-
240.0468	9	C14H7FNO2-
240.0591	1	C15H9FO2-
241.0547	5	C14H8FNO2-
242.0625	3	C14H9FNO2-
244.0418	6	C13H7FNO3-
253.0673	5	C16H10FO2-
254.0623	5	C15H9FNO2-
256.0785	3	C15H11FNO2-
257.0623	8	C15H10FO3-
276.083	2	C18H11FNO-
278.0989	3	C18H13FNO-
280.0781	13	C17H11FNO2-
282.0576	36	C16H9FNO3-
283.0653	25	C16H10FNO3-
284.0731	7	C16H11FNO3-
320.1096	2	C20H15FNO2-
322.0885	5	C19H13FNO3-
