Mass spectrum: Cortisone; LC-ESI-QFT; MS2; CE: 45; R=17500; [M-H]-
Name: Cortisone
Name: (8S,9S,10R,13S,14S,17R)-17-hydroxy-17-(2-hydroxyacetyl)-10,13-dimethyl-1,2,6,7,8,9,12,14,15,16-decahydrocyclopenta[a]phenanthrene-3,11-dione
Formula: C21H28O5
Exact mass: 360.1937
SMILES: C[C@]12CC(=O)[C@H]3[C@@H](CCC4=CC(=O)CC[C@]34C)[C@@H]1CC[C@]2(O)C(=O)CO
InChI: InChI=1S/C21H28O5/c1-19-7-5-13(23)9-12(19)3-4-14-15-6-8-21(26,17(25)11-22)20(15,2)10-16(24)18(14)19/h9,14-15,18,22,26H,3-8,10-11H2,1-2H3/t14-,15-,18+,19-,20-,21-/m0/s1
Instrument: Q Exactive Orbitrap (Thermo Scientific)
Instrument type: LC-ESI-QFT
Ms type: MS2
Ion mode: NEGATIVE
Ionization: ESI
Fragmentation mode: HCD
Collision energy: 45
Resolution: 17500
Column name: Acquity BEH C18 1.7um, 2.1x150mm (Waters)
Retention time: 15.523 min
Base peak: 405.1917
Precursor m/z: 359.1864
Precursor type: [M-H]-
Precursor intensity: 1074062.200195
m/z	relative intensity	assigned
57.0345	60	C3H5O-
95.0503	6	C6H7O-
97.066	11	C6H9O-
107.0501	18	C7H7O-
107.0864	5	C8H11-
109.0658	185	C7H9O-
121.0661	8	C8H9O-
122.0371	33	C7H6O2-
123.0452	72	C7H7O2-
123.0816	84	C8H11O-
125.0608	72	C7H9O2-
135.0451	22	C8H7O2-
135.0816	49	C9H11O-
136.053	85	C8H8O2-
137.0607	999	C8H9O2-
138.0321	9	C7H6O3-
147.0814	8	C10H11O-
149.0607	97	C9H9O2-
151.04	31	C8H7O3-
161.0973	17	C11H13O-
163.0766	33	C10H11O2-
168.0426	26	C8H8O4-
175.0763	7	C11H11O2-
175.1126	16	C12H15O-
179.1078	11	C11H15O2-
203.1075	14	C13H15O2-
205.1241	6	C13H17O2-
257.1549	52	C17H21O2-
259.1338	44	C16H19O3-
271.134	44	C17H19O3-
284.1416	15	C18H20O3-
299.1666	6	C19H23O3-
311.1652	191	C20H23O3-
326.153	22	C20H22O4-
329.1758	330	C20H25O4-
