Mass spectrum: Mepanipyrim; LC-ESI-QFT; MS2; CE: 75; R=17500; [M+H]+
Name: Mepanipyrim
Name: 4-methyl-N-phenyl-6-prop-1-ynylpyrimidin-2-amine
Formula: C14H13N3
Exact mass: 223.1109
SMILES: CC#CC1=CC(C)=NC(NC2=CC=CC=C2)=N1
InChI: InChI=1S/C14H13N3/c1-3-7-13-10-11(2)15-14(17-13)16-12-8-5-4-6-9-12/h4-6,8-10H,1-2H3,(H,15,16,17)
Instrument: Q Exactive Orbitrap (Thermo Scientific)
Instrument type: LC-ESI-QFT
Ms type: MS2
Ion mode: POSITIVE
Ionization: ESI
Fragmentation mode: HCD
Collision energy: 75
Resolution: 17500
Column name: Acquity BEH C18 1.7um, 2.1x150mm (Waters)
Retention time: 17.960 min
Base peak: 79.0212
Precursor m/z: 224.1182
Precursor type: [M+H]+
Precursor intensity: 67545541.53125
m/z	relative intensity	assigned
50.0151	3	C4H2+
51.0229	3	C4H3+
53.0386	164	C4H5+
54.0338	15	C3H4N+
56.0495	4	C3H6N+
63.0229	64	C5H3+
65.0386	153	C5H5+
66.0338	242	C4H4N+
67.0291	97	C3H3N2+
67.0416	20	C4H5N+
67.0542	35	C5H7+
68.0495	13	C4H6N+
70.0652	3	C4H8N+
77.0385	139	C6H5+
78.0337	14	C5H4N+
78.0464	30	C6H6+
79.0542	517	C6H7+
80.0495	157	C5H6N+
81.0447	3	C4H5N2+
81.0573	17	C5H7N+
81.0699	5	C6H9+
82.0527	3	C4H6N2+
82.0651	25	C5H8N+
87.0229	2	C7H3+
89.0386	28	C7H5+
90.0339	162	C6H4N+
91.0291	8	C5H3N2+
91.0417	14	C6H5N+
91.0543	38	C7H7+
92.0495	72	C6H6N+
93.0447	8	C5H5N2+
93.0573	84	C6H7N+
94.0414	14	C4H4N3+
94.0651	252	C6H8N+
95.0492	381	C4H5N3+
103.0418	8	C7H5N+
103.0543	3	C8H7+
104.0495	457	C7H6N+
105.0448	179	C6H5N2+
105.0572	12	C7H7N+
106.0651	999	C7H8N+
107.0603	78	C6H7N2+
107.073	26	C7H9N+
109.0646	4	C5H7N3+
114.0338	5	C8H4N+
115.0542	115	C9H7+
116.0495	36	C8H6N+
117.0573	22	C8H7N+
118.0526	12	C7H6N2+
118.0651	83	C8H8N+
119.0604	191	C7H7N2+
120.0681	4	C7H8N2+
121.076	176	C7H9N2+
128.0495	15	C9H6N+
128.0619	10	C10H8+
129.0446	9	C8H5N2+
129.0573	3	C9H7N+
129.0699	23	C10H9+
130.04	11	C7H4N3+
130.0527	9	C8H6N2+
130.0651	18	C9H8N+
131.0604	211	C8H7N2+
132.0682	53	C8H8N2+
139.0541	24	C11H7+
140.0495	78	C10H6N+
141.0573	11	C10H7N+
142.0652	126	C10H8N+
142.0779	7	C11H10+
143.0604	173	C9H7N2+
143.0729	25	C10H9N+
146.0713	19	C8H8N3+
147.0791	57	C8H9N3+
148.087	7	C8H10N3+
152.0621	21	C12H8+
153.0701	22	C12H9+
154.0652	15	C11H8N+
155.0607	13	C10H7N2+
155.0732	5	C11H9N+
156.0682	8	C10H8N2+
156.0807	22	C11H10N+
157.076	16	C10H9N2+
157.0885	6	C11H11N+
158.0839	6	C10H10N2+
159.0918	21	C10H11N2+
163.0546	3	C13H7+
165.0574	5	C12H7N+
165.0691	2	C13H9+
166.0651	38	C12H8N+
167.0606	18	C11H7N2+
167.0729	47	C12H9N+
168.0682	141	C11H8N2+
169.0641	9	C10H7N3+
169.076	16	C11H9N2+
170.0963	6	C12H12N+
178.0652	9	C13H8N+
179.0609	5	C12H7N2+
179.073	32	C13H9N+
180.0808	110	C13H10N+
181.076	104	C12H9N2+
181.0883	9	C13H11N+
182.0839	186	C12H10N2+
183.0791	18	C11H9N3+
183.0917	86	C12H11N2+
184.0869	60	C11H10N3+
184.0991	7	C12H12N2+
190.0654	12	C14H8N+
191.0602	5	C13H7N2+
191.0733	5	C14H9N+
192.0682	115	C13H8N2+
193.0759	6	C13H9N2+
194.0712	6	C12H8N3+
194.0841	5	C13H10N2+
195.0916	34	C13H11N2+
196.0896	2	C12H10N3+
196.0996	20	C13H12N2+
197.0959	4	C12H11N3+
197.1072	16	C13H13N2+
205.076	158	C14H9N2+
206.0839	245	C14H10N2+
207.0795	14	C13H9N3+
207.0915	114	C14H11N2+
208.0871	125	C13H10N3+
208.0992	16	C14H12N2+
209.0948	134	C13H11N3+
221.0948	11	C14H11N3+
222.1026	97	C14H12N3+
223.1103	38	C14H13N3+
224.1182	227	C14H14N3+
