Mass spectrum: Ethyl anthranilate; LC-ESI-QFT; MS2; CE: 45; R=17500; [M+H]+
Name: Ethyl anthranilate
Name: ethyl 2-aminobenzoate
Formula: C9H11NO2
Exact mass: 165.0790
SMILES: CCOC(=O)C1=C(N)C=CC=C1
InChI: InChI=1S/C9H11NO2/c1-2-12-9(11)7-5-3-4-6-8(7)10/h3-6H,2,10H2,1H3
Instrument: Q Exactive Orbitrap (Thermo Scientific)
Instrument type: LC-ESI-QFT
Ms type: MS2
Ion mode: POSITIVE
Ionization: ESI
Fragmentation mode: HCD
Collision energy: 45
Resolution: 17500
Column name: Acquity BEH C18 1.7um, 2.1x150mm (Waters)
Retention time: 19.153 min
Base peak: 79.0211
Precursor m/z: 166.0863
Precursor type: [M+H]+
Precursor intensity: 3405473.078125
m/z	relative intensity	assigned
58.0287	4	C2H4NO+
65.0384	2	C5H5+
79.0542	6	C6H7+
81.0699	40	C6H9+
91.0542	15	C7H7+
94.0413	16	C6H6O+
107.0491	17	C7H7O+
109.0648	999	C7H9O+
111.0439	1	C6H7O2+
