Mass spectrum: Acetochlor; LC-ESI-QFT; MS2; CE: 90; R=17500; [M+H]+
Name: Acetochlor
Name: 2-chloro-N-(ethoxymethyl)-N-(2-ethyl-6-methylphenyl)acetamide
Formula: C14H20ClNO2
Exact mass: 269.1183
SMILES: CCOCN(C(=O)CCl)C1=C(CC)C=CC=C1C
InChI: InChI=1S/C14H20ClNO2/c1-4-12-8-6-7-11(3)14(12)16(10-18-5-2)13(17)9-15/h6-8H,4-5,9-10H2,1-3H3
Instrument: Q Exactive Orbitrap (Thermo Scientific)
Instrument type: LC-ESI-QFT
Ms type: MS2
Ion mode: POSITIVE
Ionization: ESI
Fragmentation mode: HCD
Collision energy: 90
Resolution: 17500
Column name: Acquity BEH C18 1.7um, 2.1x150mm (Waters)
Retention time: 18.091 min
Base peak: 79.0211
Precursor m/z: 270.1255
Precursor type: [M+H]+
Precursor intensity: 36642893.0625
m/z	relative intensity	assigned
53.0386	236	C4H5+
54.0339	15	C3H4N+
57.07	12	C4H9+
65.0385	108	C5H5+
74.0963	9	C4H12N+
77.0385	65	C6H5+
79.0542	931	C6H7+
80.0495	154	C5H6N+
81.0335	45	C5H5O+
81.0571	27	C5H7N+
91.0543	770	C7H7+
92.0496	92	C6H6N+
92.062	169	C7H8+
93.0573	53	C6H7N+
93.0699	204	C7H9+
94.0652	53	C6H8N+
95.0492	557	C6H7O+
96.0445	21	C5H6NO+
96.0808	24	C6H10N+
103.0543	188	C8H7+
104.0495	236	C7H6N+
105.0572	931	C7H7N+
110.06	65	C6H8NO+
116.0277	48	C5H7ClN+
118.0651	207	C8H8N+
119.0612	7	C6H12Cl+
119.073	90	C8H9N+
120.0808	381	C8H10N+
124.0757	36	C7H10NO+
132.0806	16	C9H10N+
133.0887	46	C9H11N+
148.0757	999	C9H10NO+
158.0495	84	C8H11ClO+
