Mass spectrum: N-Phenyl-2-naphthylamine; LC-ESI-QFT; MS2; CE: 60; R=17500; [M+H]+
Name: N-Phenyl-2-naphthylamine
Name: N-phenylnaphthalen-2-amine
Formula: C16H13N
Exact mass: 219.1048
SMILES: N(C1=CC=CC=C1)C1=CC=C2C=CC=CC2=C1
InChI: InChI=1S/C16H13N/c1-2-8-15(9-3-1)17-16-11-10-13-6-4-5-7-14(13)12-16/h1-12,17H
Instrument: Q Exactive Orbitrap (Thermo Scientific)
Instrument type: LC-ESI-QFT
Ms type: MS2
Ion mode: POSITIVE
Ionization: ESI
Fragmentation mode: HCD
Collision energy: 60
Resolution: 17500
Column name: Acquity BEH C18 1.7um, 2.1x150mm (Waters)
Retention time: 19.199 min
Base peak: 79.0212
Precursor m/z: 220.1121
Precursor type: [M+H]+
Precursor intensity: 11301036.20312
m/z	relative intensity	assigned
63.0229	1	C5H3+
65.0386	138	C5H5+
91.0542	2	C7H7+
92.0495	784	C6H6N+
93.0573	69	C6H7N+
103.0544	2	C8H7+
104.0495	7	C7H6N+
115.0542	346	C9H7+
116.0621	2	C9H8+
117.0697	7	C9H9+
127.0541	2	C10H7+
128.062	435	C10H8+
142.0652	169	C10H8N+
143.0729	999	C10H9N+
153.0699	1	C12H9+
165.0696	2	C13H9+
178.0776	16	C14H10+
179.0857	4	C14H11+
191.0728	1	C14H9N+
193.0887	1	C14H11N+
193.1012	8	C15H13+
202.0777	34	C16H10+
203.0856	51	C16H11+
204.081	51	C15H10N+
204.093	9	C16H12+
205.0887	55	C15H11N+
217.0882	3	C16H11N+
218.0965	23	C16H12N+
219.1044	48	C16H13N+
220.1121	221	C16H14N+
