Mass spectrum: 7-(Dimethylamino)-4-methylcoumarin; LC-ESI-QFT; MS2; CE: 45; R=17500; [M-H]-
Name: 7-(Dimethylamino)-4-methylcoumarin
Name: 7-(dimethylamino)-4-methylchromen-2-one
Formula: C12H13NO2
Exact mass: 203.0946
SMILES: CN(C)C1=CC2=C(C=C1)C(C)=CC(=O)O2
InChI: InChI=1S/C12H13NO2/c1-8-6-12(14)15-11-7-9(13(2)3)4-5-10(8)11/h4-7H,1-3H3
Instrument: Q Exactive Orbitrap (Thermo Scientific)
Instrument type: LC-ESI-QFT
Ms type: MS2
Ion mode: NEGATIVE
Ionization: ESI
Fragmentation mode: HCD
Collision energy: 45
Resolution: 17500
Column name: Acquity BEH C18 1.7um, 2.1x150mm (Waters)
Retention time: 15.736 min
Base peak: 284.0451
Precursor m/z: 202.0874
Precursor type: [M-H]-
Precursor intensity: 3168669.779785
m/z	relative intensity	assigned
55.0189	12	C3H3O-
65.0397	18	C5H5-
67.0189	13	C4H3O-
81.0347	7	C5H5O-
83.0503	88	C5H7O-
92.0506	999	C6H6N-
108.022	1	C6H4O2-
109.0295	741	C6H5O2-
116.0507	7	C8H6N-
131.0376	15	C8H5NO-
136.0406	1	C7H6NO2-
142.0663	18	C10H8N-
144.0454	10	C9H6NO-
156.0821	4	C11H10N-
158.0611	21	C10H8NO-
158.0975	5	C11H12N-
160.0768	13	C10H10NO-
184.077	2	C12H10NO-
187.0641	12	C11H9NO2-
202.0874	14	C12H12NO2-
