Mass spectrum: Aminoglutethimide; LC-ESI-QFT; MS2; CE: 60; R=17500; [M+H]+
Name: Aminoglutethimide
Name: 3-(4-aminophenyl)-3-ethylpiperidine-2,6-dione
Formula: C13H16N2O2
Exact mass: 232.1212
SMILES: CCC1(CCC(=O)NC1=O)C1=CC=C(N)C=C1
InChI: InChI=1S/C13H16N2O2/c1-2-13(8-7-11(16)15-12(13)17)9-3-5-10(14)6-4-9/h3-6H,2,7-8,14H2,1H3,(H,15,16,17)
Instrument: Q Exactive Orbitrap (Thermo Scientific)
Instrument type: LC-ESI-QFT
Ms type: MS2
Ion mode: POSITIVE
Ionization: ESI
Fragmentation mode: HCD
Collision energy: 60
Resolution: 17500
Column name: Acquity BEH C18 1.7um, 2.1x150mm (Waters)
Retention time: 13.560 min
Base peak: 79.0211
Precursor m/z: 233.1285
Precursor type: [M+H]+
Precursor intensity: 8014701
m/z	relative intensity	assigned
72.0444	14	C3H6NO+
86.06	9	C4H8NO+
91.0543	11	C7H7+
107.0493	1	C7H7O+
108.057	2	C7H8O+
115.0543	28	C9H7+
117.0573	3	C8H7N+
117.0699	30	C9H9+
118.0651	11	C8H8N+
119.0857	2	C9H11+
128.0621	1	C10H8+
129.0699	5	C10H9+
130.0651	26	C9H8N+
131.073	158	C9H9N+
132.057	7	C9H8O+
133.0522	4	C8H7NO+
134.0599	3	C8H8NO+
142.0653	34	C10H8N+
143.073	237	C10H9N+
144.0808	56	C10H10N+
145.0649	5	C10H9O+
145.0887	1	C10H11N+
146.06	6	C9H8NO+
146.0964	11	C10H12N+
147.0678	8	C9H9NO+
147.0804	27	C10H11O+
148.0758	2	C9H10NO+
154.0651	3	C11H8N+
155.0604	4	C10H7N2+
155.0728	4	C11H9N+
156.0808	2	C11H10N+
158.06	13	C10H8NO+
159.0679	747	C10H9NO+
160.0757	11	C10H10NO+
162.0915	14	C10H12NO+
167.0733	2	C12H9N+
170.0721	1	C12H10O+
170.0963	5	C12H12N+
172.0755	2	C11H10NO+
173.0837	19	C11H11NO+
174.0914	999	C11H12NO+
183.0676	8	C12H9NO+
186.055	4	C11H8NO2+
188.107	4	C12H14NO+
198.0913	15	C13H12NO+
201.0787	3	C12H11NO2+
204.1025	1	C12H14NO2+
216.1018	12	C13H14NO2+
