Mass spectrum: Monobutyl phthalate; LC-ESI-QFT; MS2; CE: 45; R=17500; [M+H]+
Name: Monobutyl phthalate
Name: 2-butoxycarbonylbenzoic acid
Formula: C12H14O4
Exact mass: 222.0892
SMILES: CCCCOC(=O)C1=C(C=CC=C1)C(O)=O
InChI: InChI=1S/C12H14O4/c1-2-3-8-16-12(15)10-7-5-4-6-9(10)11(13)14/h4-7H,2-3,8H2,1H3,(H,13,14)
Instrument: Q Exactive Orbitrap (Thermo Scientific)
Instrument type: LC-ESI-QFT
Ms type: MS2
Ion mode: POSITIVE
Ionization: ESI
Fragmentation mode: HCD
Collision energy: 45
Resolution: 17500
Column name: Acquity BEH C18 1.7um, 2.1x150mm (Waters)
Retention time: 16.637 min
Base peak: 79.0211
Precursor m/z: 223.0965
Precursor type: [M+H]+
Precursor intensity: 990048.25
m/z	relative intensity	assigned
69.0699	512	C5H9+
92.0262	536	C6H4O+
126.0105	999	C9H2O+
