Mass spectrum: Aminoglutethimide; LC-ESI-QFT; MS2; CE: 75; R=17500; [M+H]+
Name: Aminoglutethimide
Name: 3-(4-aminophenyl)-3-ethylpiperidine-2,6-dione
Formula: C13H16N2O2
Exact mass: 232.1212
SMILES: CCC1(CCC(=O)NC1=O)C1=CC=C(N)C=C1
InChI: InChI=1S/C13H16N2O2/c1-2-13(8-7-11(16)15-12(13)17)9-3-5-10(14)6-4-9/h3-6H,2,7-8,14H2,1H3,(H,15,16,17)
Instrument: Q Exactive Orbitrap (Thermo Scientific)
Instrument type: LC-ESI-QFT
Ms type: MS2
Ion mode: POSITIVE
Ionization: ESI
Fragmentation mode: HCD
Collision energy: 75
Resolution: 17500
Column name: Acquity BEH C18 1.7um, 2.1x150mm (Waters)
Retention time: 13.560 min
Base peak: 79.0211
Precursor m/z: 233.1285
Precursor type: [M+H]+
Precursor intensity: 7015188
m/z	relative intensity	assigned
72.0443	18	C3H6NO+
77.0387	1	C6H5+
78.0464	3	C6H6+
79.0544	1	C6H7+
80.0495	3	C5H6N+
86.06	6	C4H8NO+
91.0543	30	C7H7+
95.0492	2	C6H7O+
103.0542	5	C8H7+
104.0495	2	C7H6N+
104.0621	5	C8H8+
105.0574	3	C7H7N+
106.0651	2	C7H8N+
107.0492	5	C7H7O+
108.057	4	C7H8O+
115.0542	79	C9H7+
116.0495	5	C8H6N+
116.062	6	C9H8+
117.0573	14	C8H7N+
117.0699	42	C9H9+
118.065	13	C8H8N+
119.0857	3	C9H11+
120.0445	1	C7H6NO+
121.052	1	C7H7NO+
121.0647	4	C8H9O+
128.0495	1	C9H6N+
128.0622	7	C10H8+
129.0699	8	C10H9+
130.0652	192	C9H8N+
131.073	554	C9H9N+
132.0445	6	C8H6NO+
132.0569	16	C9H8O+
133.0522	7	C8H7NO+
134.0599	11	C8H8NO+
137.0473	5	C7H7NO2+
140.0495	2	C10H6N+
141.0575	2	C10H7N+
142.0652	43	C10H8N+
143.073	410	C10H9N+
144.0445	2	C9H6NO+
144.0808	56	C10H10N+
145.065	6	C10H9O+
145.0887	3	C10H11N+
146.0599	12	C9H8NO+
146.0961	7	C10H12N+
147.0679	19	C9H9NO+
147.0804	22	C10H11O+
148.0759	3	C9H10NO+
154.0651	5	C11H8N+
155.0604	6	C10H7N2+
155.073	10	C11H9N+
158.0601	43	C10H8NO+
159.0679	999	C10H9NO+
160.0758	16	C10H10NO+
162.0915	9	C10H12NO+
167.0729	3	C12H9N+
168.0811	1	C12H10N+
170.0716	1	C12H10O+
170.0967	2	C12H12N+
172.0755	3	C11H10NO+
173.0835	29	C11H11NO+
174.0914	363	C11H12NO+
183.068	15	C12H9NO+
186.0547	7	C11H8NO2+
198.0917	6	C13H12NO+
