Mass spectrum: Mepanipyrim; LC-ESI-QFT; MS2; CE: 60; R=17500; [M+H]+
Name: Mepanipyrim
Name: 4-methyl-N-phenyl-6-prop-1-ynylpyrimidin-2-amine
Formula: C14H13N3
Exact mass: 223.1109
SMILES: CC#CC1=CC(C)=NC(NC2=CC=CC=C2)=N1
InChI: InChI=1S/C14H13N3/c1-3-7-13-10-11(2)15-14(17-13)16-12-8-5-4-6-9-12/h4-6,8-10H,1-2H3,(H,15,16,17)
Instrument: Q Exactive Orbitrap (Thermo Scientific)
Instrument type: LC-ESI-QFT
Ms type: MS2
Ion mode: POSITIVE
Ionization: ESI
Fragmentation mode: HCD
Collision energy: 60
Resolution: 17500
Column name: Acquity BEH C18 1.7um, 2.1x150mm (Waters)
Retention time: 17.960 min
Base peak: 79.0212
Precursor m/z: 224.1182
Precursor type: [M+H]+
Precursor intensity: 49104444.5
m/z	relative intensity	assigned
53.0386	33	C4H5+
54.0339	3	C3H4N+
56.0496	1	C3H6N+
63.0229	9	C5H3+
65.0385	67	C5H5+
66.0338	47	C4H4N+
67.029	17	C3H3N2+
67.0416	4	C4H5N+
67.0542	7	C5H7+
68.0494	7	C4H6N+
70.0651	1	C4H8N+
77.0385	27	C6H5+
78.0338	2	C5H4N+
78.0464	7	C6H6+
79.0542	210	C6H7+
80.0494	63	C5H6N+
81.0447	1	C4H5N2+
81.0573	6	C5H7N+
82.0651	24	C5H8N+
89.0385	5	C7H5+
90.0338	53	C6H4N+
91.0291	1	C5H3N2+
91.0417	2	C6H5N+
91.0542	9	C7H7+
92.0495	20	C6H6N+
93.0447	3	C5H5N2+
93.0573	25	C6H7N+
94.0651	114	C6H8N+
95.0491	72	C4H5N3+
104.0495	234	C7H6N+
105.0447	40	C6H5N2+
105.0574	4	C7H7N+
106.0651	638	C7H8N+
107.0603	51	C6H7N2+
107.0729	23	C7H9N+
114.0336	1	C8H4N+
115.0542	40	C9H7+
116.0495	10	C8H6N+
117.0573	8	C8H7N+
118.0526	9	C7H6N2+
118.0651	40	C8H8N+
119.0604	91	C7H7N2+
120.0686	1	C7H8N2+
121.076	154	C7H9N2+
128.0495	3	C9H6N+
128.0622	2	C10H8+
129.0449	4	C8H5N2+
129.0698	15	C10H9+
130.0527	1	C8H6N2+
130.0651	8	C9H8N+
131.0604	219	C8H7N2+
132.0682	58	C8H8N2+
139.0541	7	C11H7+
140.0494	18	C10H6N+
141.0573	2	C10H7N+
141.0699	2	C11H9+
142.0651	91	C10H8N+
142.0777	9	C11H10+
143.0604	101	C9H7N2+
143.0728	12	C10H9N+
145.0761	2	C9H9N2+
146.0712	11	C8H8N3+
147.079	42	C8H9N3+
148.0869	2	C8H10N3+
152.0619	4	C12H8+
153.0698	8	C12H9+
154.0653	5	C11H8N+
155.0604	3	C10H7N2+
155.0728	1	C11H9N+
156.0685	1	C10H8N2+
156.0808	19	C11H10N+
157.0762	8	C10H9N2+
157.0887	3	C11H11N+
158.0841	3	C10H10N2+
158.0965	1	C11H12N+
159.0917	19	C10H11N2+
166.0651	36	C12H8N+
167.0608	7	C11H7N2+
167.073	24	C12H9N+
168.0682	73	C11H8N2+
169.0645	1	C10H7N3+
169.0756	6	C11H9N2+
170.0842	1	C11H10N2+
170.0962	5	C12H12N+
178.065	2	C13H8N+
179.0609	1	C12H7N2+
179.0726	6	C13H9N+
180.0807	77	C13H10N+
181.0758	27	C12H9N2+
181.0886	5	C13H11N+
182.0839	105	C12H10N2+
183.0793	6	C11H9N3+
183.0916	96	C12H11N2+
184.087	58	C11H10N3+
184.0996	10	C12H12N2+
190.0651	10	C14H8N+
191.0728	2	C14H9N+
192.0681	61	C13H8N2+
193.0764	1	C13H9N2+
194.0715	3	C12H8N3+
194.0838	3	C13H10N2+
195.0916	19	C13H11N2+
196.0883	1	C12H10N3+
196.0994	13	C13H12N2+
197.0955	4	C12H11N3+
197.107	23	C13H13N2+
198.1024	2	C12H12N3+
205.076	31	C14H9N2+
206.0838	130	C14H10N2+
207.0916	134	C14H11N2+
208.087	74	C13H10N3+
208.0994	22	C14H12N2+
209.0947	188	C13H11N3+
221.0951	2	C14H11N3+
222.1025	63	C14H12N3+
223.1104	40	C14H13N3+
224.1181	999	C14H14N3+
