Mass spectrum: Diphenyl isophthalate; LC-ESI-QFT; MS2; CE: 75; R=17500; [M-H]-
Name: Diphenyl isophthalate
Name: diphenyl benzene-1,3-dicarboxylate
Formula: C20H14O4
Exact mass: 318.0892
SMILES: O=C(OC1=CC=CC=C1)C1=CC(=CC=C1)C(=O)OC1=CC=CC=C1
InChI: InChI=1S/C20H14O4/c21-19(23-17-10-3-1-4-11-17)15-8-7-9-16(14-15)20(22)24-18-12-5-2-6-13-18/h1-14H
Instrument: Q Exactive Orbitrap (Thermo Scientific)
Instrument type: LC-ESI-QFT
Ms type: MS2
Ion mode: NEGATIVE
Ionization: ESI
Fragmentation mode: HCD
Collision energy: 75
Resolution: 17500
Column name: Acquity BEH C18 1.7um, 2.1x150mm (Waters)
Retention time: 15.329 min
Base peak: 259.0087
Precursor m/z: 317.0819
Precursor type: [M-H]-
Precursor intensity: 7395330.334473
m/z	relative intensity	assigned
65.0397	18	C5H5-
75.024	1	C6H3-
93.0346	999	C6H5O-
151.0556	2	C12H7-
169.0657	1	C12H9O-
180.0582	2	C13H8O-
195.0451	27	C13H7O2-
197.0607	7	C13H9O2-
204.0582	2	C15H8O-
205.066	1	C15H9O-
209.0382	1	C17H5-
215.0869	2	C17H11-
223.0403	9	C14H7O3-
230.0738	1	C17H10O-
241.0663	1	C18H9O-
243.0818	19	C18H11O-
271.0766	39	C19H11O2-
272.084	1	C19H12O2-
