Mass spectrum: Theophylline; LC-ESI-QFT; MS2; CE: 90; R=17500; [M+H]+
Name: Theophylline
Name: 1,3-dimethyl-7H-purine-2,6-dione
Formula: C7H8N4O2
Exact mass: 180.0647
SMILES: CN1C2=C(NC=N2)C(=O)N(C)C1=O
InChI: InChI=1S/C7H8N4O2/c1-10-5-4(8-3-9-5)6(12)11(2)7(10)13/h3H,1-2H3,(H,8,9)
Instrument: Q Exactive Orbitrap (Thermo Scientific)
Instrument type: LC-ESI-QFT
Ms type: MS2
Ion mode: POSITIVE
Ionization: ESI
Fragmentation mode: HCD
Collision energy: 90
Resolution: 17500
Column name: Acquity BEH C18 1.7um, 2.1x150mm (Waters)
Retention time: 10.147 min
Base peak: 79.0211
Precursor m/z: 181.072
Precursor type: [M+H]+
Precursor intensity: 2434092
m/z	relative intensity	assigned
65.0386	131	C5H5+
69.0447	999	C3H5N2+
79.0543	9	C6H7+
81.0448	36	C4H5N2+
83.024	77	C3H3N2O+
83.0604	6	C4H7N2+
91.0542	6	C7H7+
93.0335	14	C6H5O+
93.045	20	C5H5N2+
94.04	83	C4H4N3+
95.024	16	C4H3N2O+
95.0492	35	C6H7O+
96.0556	643	C4H6N3+
97.0397	39	C4H5N2O+
108.0557	13	C5H6N3+
109.0271	92	C4H3N3O+
110.0714	10	C5H8N3+
111.0441	19	C6H7O2+
112.0509	6	C4H6N3O+
113.0346	10	C4H5N2O2+
121.0283	30	C7H5O2+
121.0397	23	C6H5N2O+
122.0587	13	C5H6N4+
124.0506	592	C5H6N3O+
126.0662	5	C5H8N3O+
133.0284	12	C6H3N3O+
135.044	10	C6H5N3O+
137.0825	4	C6H9N4+
140.0456	13	C5H6N3O2+
142.0611	73	C5H8N3O2+
149.0236	23	C6H3N3O2+
163.0386	4	C7H5N3O2+
167.0563	9	C6H7N4O2+
181.0718	12	C7H9N4O2+
