Mass spectrum: sec-Butylparaben; LC-ESI-QFT; MS2; CE: 60; R=17500; [M-H]-
Name: sec-Butylparaben
Name: Sec-Butyl 4-hydroxybenzoate
Name: butan-2-yl 4-hydroxybenzoate
Formula: C11H14O3
Exact mass: 194.0943
SMILES: CCC(C)OC(=O)C1=CC=C(O)C=C1
InChI: InChI=1S/C11H14O3/c1-3-8(2)14-11(13)9-4-6-10(12)7-5-9/h4-8,12H,3H2,1-2H3
Instrument: Q Exactive Orbitrap (Thermo Scientific)
Instrument type: LC-ESI-QFT
Ms type: MS2
Ion mode: NEGATIVE
Ionization: ESI
Fragmentation mode: HCD
Collision energy: 60
Resolution: 17500
Column name: Acquity BEH C18 1.7um, 2.1x150mm (Waters)
Retention time: 17.229 min
Base peak: 193.0868
Precursor m/z: 193.087
Precursor type: [M-H]-
Precursor intensity: 47087236.86523
m/z	relative intensity	assigned
57.0346	3	C3H5O-
65.0396	2	C5H5-
67.0191	1	C4H3O-
68.9982	2	C3HO2-
69.0347	1	C4H5O-
70.0061	1	C3H2O2-
71.0139	2	C3H3O2-
71.0503	26	C4H7O-
72.9932	1	C2HO3-
73.0659	4	C4H9O-
79.0189	1	C5H3O-
79.9905	1	C4O2-
80.9982	1	C4HO2-
82.0061	11	C4H2O2-
91.019	9	C6H3O-
92.0269	66	C6H4O-
93.0346	999	C6H5O-
95.0138	128	C5H3O2-
97.0296	1	C5H5O2-
106.0061	7	C6H2O2-
108.0217	124	C6H4O2-
119.0139	1	C7H3O2-
121.0297	3	C7H5O2-
123.0088	15	C6H3O3-
136.0167	95	C7H4O3-
137.0245	218	C7H5O3-
193.0871	16	C11H13O3-
