Mass spectrum: 2H-3,1-Benzoxazine-2,4(1H)-dione; LC-ESI-QFT; MS2; CE: 60; R=17500; [M-H]-
Name: 2H-3,1-Benzoxazine-2,4(1H)-dione
Name: Isatoic anhydride
Name: 1H-3,1-benzoxazine-2,4-dione
Formula: C8H5NO3
Exact mass: 163.0269
SMILES: O=C1NC2=C(C=CC=C2)C(=O)O1
InChI: InChI=1S/C8H5NO3/c10-7-5-3-1-2-4-6(5)9-8(11)12-7/h1-4H,(H,9,11)
Instrument: Q Exactive Orbitrap (Thermo Scientific)
Instrument type: LC-ESI-QFT
Ms type: MS2
Ion mode: NEGATIVE
Ionization: ESI
Fragmentation mode: HCD
Collision energy: 60
Resolution: 17500
Column name: Acquity BEH C18 1.7um, 2.1x150mm (Waters)
Retention time: 12.141 min
Base peak: 162.0197
Precursor m/z: 162.0197
Precursor type: [M-H]-
Precursor intensity: 2112701.233154
m/z	relative intensity	assigned
118.0299	999	C7H4NO-
