Mass spectrum: Methylparaben; LC-ESI-QFT; MS2; CE: 75; R=17500; [M-H]-
Name: Methylparaben
Name: methyl 4-hydroxybenzoate
Formula: C8H8O3
Exact mass: 152.0473
SMILES: COC(=O)C1=CC=C(O)C=C1
InChI: InChI=1S/C8H8O3/c1-11-8(10)6-2-4-7(9)5-3-6/h2-5,9H,1H3
Instrument: Q Exactive Orbitrap (Thermo Scientific)
Instrument type: LC-ESI-QFT
Ms type: MS2
Ion mode: NEGATIVE
Ionization: ESI
Fragmentation mode: HCD
Collision energy: 75
Resolution: 17500
Column name: Acquity BEH C18 1.7um, 2.1x150mm (Waters)
Retention time: 14.170 min
Base peak: 151.04
Precursor m/z: 151.0401
Precursor type: [M-H]-
Precursor intensity: 20982321.48682
m/z	relative intensity	assigned
53.0033	5	C3HO-
65.0033	2	C4HO-
67.0189	9	C4H3O-
68.9982	27	C3HO2-
69.0346	24	C4H5O-
70.006	9	C3H2O2-
71.0139	16	C3H3O2-
72.9932	12	C2HO3-
78.0112	3	C5H2O-
79.0189	9	C5H3O-
79.9904	12	C4O2-
80.9983	7	C4HO2-
82.0061	80	C4H2O2-
91.019	193	C6H3O-
92.0268	416	C6H4O-
93.0347	14	C6H5O-
95.0139	999	C5H3O2-
97.0296	16	C5H5O2-
98.0009	5	C4H2O3-
106.0061	52	C6H2O2-
107.0139	6	C6H3O2-
107.0501	9	C7H7O-
108.0217	969	C6H4O2-
109.0292	3	C6H5O2-
119.0138	19	C7H3O2-
121.0295	51	C7H5O2-
123.0088	119	C6H3O3-
125.0243	3	C6H5O3-
136.0166	317	C7H4O3-
151.0401	86	C8H7O3-
