Mass spectrum: 4-Phenylphenol; LC-ESI-QFT; MS2; CE: 30; R=17500; [M-H]-
Name: 4-Phenylphenol
Formula: C12H10O
Exact mass: 170.0732
SMILES: OC1=CC=C(C=C1)C1=CC=CC=C1
InChI: InChI=1S/C12H10O/c13-12-8-6-11(7-9-12)10-4-2-1-3-5-10/h1-9,13H
Instrument: Q Exactive Orbitrap (Thermo Scientific)
Instrument type: LC-ESI-QFT
Ms type: MS2
Ion mode: NEGATIVE
Ionization: ESI
Fragmentation mode: HCD
Collision energy: 30
Resolution: 17500
Column name: Acquity BEH C18 1.7um, 2.1x150mm (Waters)
Retention time: 17.822 min
Base peak: 253.0506
Precursor m/z: 169.0659
Precursor type: [M-H]-
Precursor intensity: 486592.0380859
m/z	relative intensity	assigned
93.0346	999	C6H5O-
169.0659	849	C12H9O-
