Mass spectrum: Carabersat; LC-ESI-QFT; MS2; CE: 75; R=17500; [M+H]+
Name: Carabersat
Name: N-[(3R,4S)-6-acetyl-3-hydroxy-2,2-dimethyl-3,4-dihydrochromen-4-yl]-4-fluorobenzamide
Formula: C20H20FNO4
Exact mass: 357.1376
SMILES: CC(=O)C1=CC2=C(OC(C)(C)[C@H](O)[C@H]2NC(=O)C2=CC=C(F)C=C2)C=C1
InChI: InChI=1S/C20H20FNO4/c1-11(23)13-6-9-16-15(10-13)17(18(24)20(2,3)26-16)22-19(25)12-4-7-14(21)8-5-12/h4-10,17-18,24H,1-3H3,(H,22,25)/t17-,18+/m0/s1
Instrument: Q Exactive Orbitrap (Thermo Scientific)
Instrument type: LC-ESI-QFT
Ms type: MS2
Ion mode: POSITIVE
Ionization: ESI
Fragmentation mode: HCD
Collision energy: 75
Resolution: 17500
Column name: Acquity BEH C18 1.7um, 2.1x150mm (Waters)
Retention time: 15.712 min
Base peak: 79.0211
Precursor m/z: 358.1449
Precursor type: [M+H]+
Precursor intensity: 12327392.75
m/z	relative intensity	assigned
51.0231	8	C4H3+
53.0022	5	C3HO+
53.0386	8	C4H5+
55.0543	7	C4H7+
59.0492	999	C3H7O+
71.0291	10	C4H4F+
75.0229	12	C6H3+
79.0179	3	C5H3O+
79.0543	17	C6H7+
91.0543	76	C7H7+
93.0699	39	C7H9+
95.0292	5	C6H4F+
95.0492	38	C6H7O+
97.045	40	C6H6F+
103.0544	4	C8H7+
105.0699	14	C8H9+
106.0415	3	C7H6O+
107.0492	232	C7H7O+
111.0441	4	C6H7O2+
113.0398	74	C6H6FO+
115.0543	8	C9H7+
116.0621	5	C9H8+
119.0493	13	C8H7O+
119.0856	3	C9H11+
121.0285	9	C7H5O2+
121.0649	91	C8H9O+
123.0241	612	C7H4FO+
129.0699	7	C10H9+
131.0492	6	C9H7O+
131.0856	28	C10H11+
133.0648	9	C9H9O+
134.0363	12	C8H6O2+
135.044	7	C8H7O2+
135.0805	17	C9H11O+
140.0508	37	C7H7FNO+
141.07	10	C11H9+
144.0571	28	C10H8O+
147.0803	6	C10H11O+
149.0598	195	C9H9O2+
158.0363	8	C10H6O2+
158.0726	11	C11H10O+
159.0806	52	C11H11O+
161.06	6	C10H9O2+
163.0391	14	C9H7O3+
165.0548	49	C9H9O3+
173.0599	21	C11H9O2+
177.091	51	C11H13O2+
181.0494	3	C9H9O4+
190.0628	20	C11H10O3+
201.0914	35	C13H13O2+
