Mass spectrum: 3-Methyl-3,4-dihydro-2H-1,4-benzoxazine; LC-ESI-QFT; MS2; CE: 60; R=17500; [M+H]+
Name: 3-Methyl-3,4-dihydro-2H-1,4-benzoxazine
Formula: C9H11NO
Exact mass: 149.0841
SMILES: CC1COC2=C(N1)C=CC=C2
InChI: InChI=1S/C9H11NO/c1-7-6-11-9-5-3-2-4-8(9)10-7/h2-5,7,10H,6H2,1H3
Instrument: Q Exactive Orbitrap (Thermo Scientific)
Instrument type: LC-ESI-QFT
Ms type: MS2
Ion mode: POSITIVE
Ionization: ESI
Fragmentation mode: HCD
Collision energy: 60
Resolution: 17500
Column name: Acquity BEH C18 1.7um, 2.1x150mm (Waters)
Retention time: 14.863 min
Base peak: 79.0211
Precursor m/z: 150.0913
Precursor type: [M+H]+
Precursor intensity: 8028716.28125
m/z	relative intensity	assigned
51.0229	1	C4H3+
53.0386	2	C4H5+
65.0386	2	C5H5+
66.0464	3	C5H6+
77.0385	4	C6H5+
78.0463	1	C6H6+
79.0542	66	C6H7+
80.0495	4	C5H6N+
81.0573	2	C5H7N+
81.0699	11	C6H9+
91.0542	6	C7H7+
92.0494	5	C6H6N+
93.0573	1	C6H7N+
93.0699	8	C7H9+
94.0651	4	C6H8N+
95.0491	6	C6H7O+
95.0856	2	C7H11+
103.0543	3	C8H7+
105.0335	1	C7H5O+
105.0573	2	C7H7N+
105.07	3	C8H9+
106.0651	89	C7H8N+
107.0729	999	C7H9N+
108.0442	7	C6H6NO+
110.0599	2	C6H8NO+
118.0651	4	C8H8N+
119.0732	1	C8H9N+
120.0808	792	C8H10N+
121.0886	367	C8H11N+
122.0963	925	C8H12N+
134.06	6	C8H8NO+
135.0678	11	C8H9NO+
150.0913	588	C9H12NO+
