Mass spectrum: Methylparaben; LC-ESI-QFT; MS2; CE: 45; R=17500; [M-H]-
Name: Methylparaben
Name: methyl 4-hydroxybenzoate
Formula: C8H8O3
Exact mass: 152.0473
SMILES: COC(=O)C1=CC=C(O)C=C1
InChI: InChI=1S/C8H8O3/c1-11-8(10)6-2-4-7(9)5-3-6/h2-5,9H,1H3
Instrument: Q Exactive Orbitrap (Thermo Scientific)
Instrument type: LC-ESI-QFT
Ms type: MS2
Ion mode: NEGATIVE
Ionization: ESI
Fragmentation mode: HCD
Collision energy: 45
Resolution: 17500
Column name: Acquity BEH C18 1.7um, 2.1x150mm (Waters)
Retention time: 14.170 min
Base peak: 151.04
Precursor m/z: 151.0401
Precursor type: [M-H]-
Precursor intensity: 24675646.45508
m/z	relative intensity	assigned
65.0033	1	C4HO-
67.0189	1	C4H3O-
68.9982	5	C3HO2-
69.0346	4	C4H5O-
70.0061	3	C3H2O2-
71.0139	4	C3H3O2-
72.9931	1	C2HO3-
79.0189	3	C5H3O-
79.9903	2	C4O2-
80.9983	1	C4HO2-
82.006	18	C4H2O2-
91.0189	21	C6H3O-
92.0267	132	C6H4O-
93.0346	1	C6H5O-
95.0139	233	C5H3O2-
97.0295	1	C5H5O2-
98.0008	1	C4H2O3-
106.0061	11	C6H2O2-
107.014	1	C6H3O2-
107.0502	5	C7H7O-
108.0217	220	C6H4O2-
109.0293	1	C6H5O2-
119.0138	23	C7H3O2-
121.0296	9	C7H5O2-
123.0088	28	C6H3O3-
125.0242	1	C6H5O3-
136.0165	999	C7H4O3-
151.04	802	C8H7O3-
