Mass spectrum: Carabersat; LC-ESI-QFT; MS2; CE: 90; R=17500; [M-H]-
Name: Carabersat
Name: N-[(3R,4S)-6-acetyl-3-hydroxy-2,2-dimethyl-3,4-dihydrochromen-4-yl]-4-fluorobenzamide
Formula: C20H20FNO4
Exact mass: 357.1376
SMILES: CC(=O)C1=CC2=C(OC(C)(C)[C@H](O)[C@H]2NC(=O)C2=CC=C(F)C=C2)C=C1
InChI: InChI=1S/C20H20FNO4/c1-11(23)13-6-9-16-15(10-13)17(18(24)20(2,3)26-16)22-19(25)12-4-7-14(21)8-5-12/h4-10,17-18,24H,1-3H3,(H,22,25)/t17-,18+/m0/s1
Instrument: Q Exactive Orbitrap (Thermo Scientific)
Instrument type: LC-ESI-QFT
Ms type: MS2
Ion mode: NEGATIVE
Ionization: ESI
Fragmentation mode: HCD
Collision energy: 90
Resolution: 17500
Column name: Acquity BEH C18 1.7um, 2.1x150mm (Waters)
Retention time: 15.695 min
Base peak: 356.1303
Precursor m/z: 356.1304
Precursor type: [M-H]-
Precursor intensity: 50976277.94141
m/z	relative intensity	assigned
65.0033	10	C4HO-
65.0271	5	C4H3N-
65.0398	5	C5H5-
65.9985	233	C3NO-
67.0189	5	C4H3O-
68.0142	3	C3H2NO-
68.9982	5	C3HO2-
79.0189	4	C5H3O-
81.0346	101	C5H5O-
82.0061	8	C4H2O2-
91.019	20	C6H3O-
92.0268	29	C6H4O-
93.0346	840	C6H5O-
95.0139	96	C5H3O2-
95.0303	336	C6H4F-
98.001	6	C4H2O3-
100.0194	8	C7H2N-
105.022	14	C6H3NO-
107.0502	6	C7H7O-
108.0217	313	C6H4O2-
109.046	2	C7H6F-
116.0267	6	C8H4O-
117.022	81	C7H3NO-
117.0346	36	C8H5O-
118.0299	301	C7H4NO-
119.0139	11	C7H3O2-
119.0501	5	C8H7O-
120.0091	149	C6H2NO2-
120.0215	8	C7H4O2-
120.0255	33	C7H3FN-
121.0294	7	C7H5O2-
122.0248	2	C6H4NO2-
122.0374	2	C7H6O2-
122.9962	7	C5HNO3-
123.0088	18	C6H3O3-
132.0216	10	C8H4O2-
132.0456	4	C8H6NO-
133.017	223	C7H3NO2-
135.0452	999	C8H7O2-
136.0404	9	C7H6NO2-
137.0408	32	C8H6FO-
138.0361	8	C7H5FNO-
139.0201	24	C7H4FO2-
139.0551	2	C11H7-
143.0501	5	C10H7O-
145.0169	16	C8H3NO2-
146.0737	3	C10H10O-
147.0813	3	C10H11O-
148.0042	13	C7H2NO3-
148.0532	6	C9H8O2-
149.0281	2	C8H4FNO-
149.0607	5	C9H9O2-
157.0661	4	C11H9O-
158.061	6	C10H8NO-
159.0452	55	C10H7O2-
160.0404	680	C9H6NO2-
161.0408	19	C10H6FO-
161.0608	3	C10H9O2-
162.0358	6	C9H5FNO-
162.0561	117	C9H8NO2-
163.0403	2	C9H7O3-
164.0154	7	C8H3FNO2-
166.031	6	C8H5FNO2-
175.0399	4	C10H7O3-
175.0564	43	C11H8FO-
177.0724	3	C11H10FO-
180.0429	7	C9H8O4-
183.0451	3	C12H7O2-
189.0924	2	C12H13O2-
198.0486	3	C13H7FO-
199.0767	4	C13H11O2-
211.0562	2	C14H8FO-
212.0519	13	C13H7FNO-
213.0356	15	C13H6FO2-
215.052	3	C13H8FO2-
216.0458	2	C15H6NO-
219.0451	4	C15H7O2-
239.0387	2	C14H6FNO2-
240.0466	12	C14H7FNO2-
244.0414	2	C13H7FNO3-
254.062	3	C15H9FNO2-
276.0833	3	C18H11FNO-
280.0782	2	C17H11FNO2-
282.0572	16	C16H9FNO3-
283.0649	3	C16H10FNO3-
