Mass spectrum: sec-Butylparaben; LC-ESI-QFT; MS2; CE: 45; R=17500; [M-H]-
Name: sec-Butylparaben
Name: Sec-Butyl 4-hydroxybenzoate
Name: butan-2-yl 4-hydroxybenzoate
Formula: C11H14O3
Exact mass: 194.0943
SMILES: CCC(C)OC(=O)C1=CC=C(O)C=C1
InChI: InChI=1S/C11H14O3/c1-3-8(2)14-11(13)9-4-6-10(12)7-5-9/h4-8,12H,3H2,1-2H3
Instrument: Q Exactive Orbitrap (Thermo Scientific)
Instrument type: LC-ESI-QFT
Ms type: MS2
Ion mode: NEGATIVE
Ionization: ESI
Fragmentation mode: HCD
Collision energy: 45
Resolution: 17500
Column name: Acquity BEH C18 1.7um, 2.1x150mm (Waters)
Retention time: 17.229 min
Base peak: 193.0868
Precursor m/z: 193.087
Precursor type: [M-H]-
Precursor intensity: 49590580.08594
m/z	relative intensity	assigned
57.0344	1	C3H5O-
67.0189	1	C4H3O-
68.9981	2	C3HO2-
69.0345	2	C4H5O-
70.0059	2	C3H2O2-
71.0137	2	C3H3O2-
71.0502	12	C4H7O-
73.0658	4	C4H9O-
79.0188	2	C5H3O-
82.0059	9	C4H2O2-
91.0188	4	C6H3O-
92.0267	81	C6H4O-
93.0345	999	C6H5O-
95.0137	97	C5H3O2-
97.0295	1	C5H5O2-
106.0059	4	C6H2O2-
108.0216	91	C6H4O2-
119.0138	3	C7H3O2-
121.0292	2	C7H5O2-
123.0086	12	C6H3O3-
136.0165	376	C7H4O3-
137.0242	844	C7H5O3-
149.097	1	C10H13O-
193.0869	228	C11H13O3-
