Mass spectrum: Secbumeton; LC-ESI-QFT; MS2; CE: 45; R=17500; [M+H]+
Name: Secbumeton
Name: 2-N-butan-2-yl-4-N-ethyl-6-methoxy-1,3,5-triazine-2,4-diamine
Formula: C10H19N5O
Exact mass: 225.1590
SMILES: CCNC1=NC(OC)=NC(NC(C)CC)=N1
InChI: InChI=1S/C10H19N5O/c1-5-7(3)12-9-13-8(11-6-2)14-10(15-9)16-4/h7H,5-6H2,1-4H3,(H2,11,12,13,14,15)
Instrument: Q Exactive Orbitrap (Thermo Scientific)
Instrument type: LC-ESI-QFT
Ms type: MS2
Ion mode: POSITIVE
Ionization: ESI
Fragmentation mode: HCD
Collision energy: 45
Resolution: 17500
Column name: Acquity BEH C18 1.7um, 2.1x150mm (Waters)
Retention time: 14.695 min
Base peak: 79.0211
Precursor m/z: 226.1662
Precursor type: [M+H]+
Precursor intensity: 66851177.25
m/z	relative intensity	assigned
57.0447	14	C2H5N2+
57.0699	19	C4H9+
58.0288	1	C2H4NO+
68.0243	6	C2H2N3+
69.0083	6	C2HN2O+
71.0603	19	C3H7N2+
75.0553	32	C2H7N2O+
82.0401	1	C3H4N3+
83.024	2	C3H3N2O+
85.076	30	C4H9N2+
86.0349	29	C2H4N3O+
96.0556	61	C4H6N3+
97.0397	25	C4H5N2O+
99.0664	2	C3H7N4+
100.0505	81	C3H6N3O+
110.0714	2	C5H8N3+
113.0822	2	C4H9N4+
114.0662	90	C4H8N3O+
127.0979	3	C5H11N4+
128.0819	32	C5H10N3O+
138.0774	7	C5H8N5+
142.0724	73	C4H8N5O+
152.1183	13	C8H14N3+
153.077	1	C6H9N4O+
156.1132	1	C7H14N3O+
168.0879	3	C6H10N5O+
170.1036	999	C6H12N5O+
198.1347	2	C8H16N5O+
226.1662	353	C10H20N5O+
