Mass spectrum: Monobutyl phthalate; LC-ESI-QFT; MS2; CE: 75; R=17500; [M+H]+
Name: Monobutyl phthalate
Name: 2-butoxycarbonylbenzoic acid
Formula: C12H14O4
Exact mass: 222.0892
SMILES: CCCCOC(=O)C1=C(C=CC=C1)C(O)=O
InChI: InChI=1S/C12H14O4/c1-2-3-8-16-12(15)10-7-5-4-6-9(10)11(13)14/h4-7H,2-3,8H2,1H3,(H,13,14)
Instrument: Q Exactive Orbitrap (Thermo Scientific)
Instrument type: LC-ESI-QFT
Ms type: MS2
Ion mode: POSITIVE
Ionization: ESI
Fragmentation mode: HCD
Collision energy: 75
Resolution: 17500
Column name: Acquity BEH C18 1.7um, 2.1x150mm (Waters)
Retention time: 16.637 min
Base peak: 79.0211
Precursor m/z: 223.0965
Precursor type: [M+H]+
Precursor intensity: 1719589.125
m/z	relative intensity	assigned
53.0387	222	C4H5+
92.0263	368	C6H4O+
95.0491	999	C6H7O+
103.0545	514	C8H7+
121.0283	821	C7H5O2+
126.0106	917	C9H2O+
152.0618	388	C12H8+
