Mass spectrum: 2-(Ethyl(3-methylphenyl)amino)acetonitrile; LC-ESI-QFT; MS2; CE: 15; R=17500; [M+H]+
Name: 2-(Ethyl(3-methylphenyl)amino)acetonitrile
Name: 2-(N-ethyl-3-methylanilino)acetonitrile
Formula: C11H14N2
Exact mass: 174.1157
SMILES: CCN(CC#N)C1=CC(C)=CC=C1
InChI: InChI=1S/C11H14N2/c1-3-13(8-7-12)11-6-4-5-10(2)9-11/h4-6,9H,3,8H2,1-2H3
Instrument: Q Exactive Orbitrap (Thermo Scientific)
Instrument type: LC-ESI-QFT
Ms type: MS2
Ion mode: POSITIVE
Ionization: ESI
Fragmentation mode: HCD
Collision energy: 15
Resolution: 17500
Column name: Acquity BEH C18 1.7um, 2.1x150mm (Waters)
Retention time: 15.747 min
Base peak: 79.0211
Precursor m/z: 175.123
Precursor type: [M+H]+
Precursor intensity: 13136513.0625
m/z	relative intensity	assigned
70.0651	5	C4H8N+
77.0387	1	C6H5+
106.0651	261	C7H8N+
120.0808	1	C8H10N+
121.0886	245	C8H11N+
122.0963	11	C8H12N+
130.0652	1	C9H8N+
134.0964	302	C9H12N+
145.076	1	C9H9N2+
146.0838	36	C9H10N2+
147.0916	29	C9H11N2+
158.0966	1	C11H12N+
175.1229	999	C11H15N2+
