Mass spectrum: Diphenyl isophthalate; LC-ESI-QFT; MS2; CE: 15; R=17500; [M+H]+
Name: Diphenyl isophthalate
Name: diphenyl benzene-1,3-dicarboxylate
Formula: C20H14O4
Exact mass: 318.0892
SMILES: O=C(OC1=CC=CC=C1)C1=CC(=CC=C1)C(=O)OC1=CC=CC=C1
InChI: InChI=1S/C20H14O4/c21-19(23-17-10-3-1-4-11-17)15-8-7-9-16(14-15)20(22)24-18-12-5-2-6-13-18/h1-14H
Instrument: Q Exactive Orbitrap (Thermo Scientific)
Instrument type: LC-ESI-QFT
Ms type: MS2
Ion mode: POSITIVE
Ionization: ESI
Fragmentation mode: HCD
Collision energy: 15
Resolution: 17500
Column name: Acquity BEH C18 1.7um, 2.1x150mm (Waters)
Retention time: 15.346 min
Base peak: 79.0211
Precursor m/z: 319.0965
Precursor type: [M+H]+
Precursor intensity: 7785040.75
m/z	relative intensity	assigned
225.0546	148	C14H9O3+
319.0966	999	C20H15O4+
