Mass spectrum: 2-Hydroxybenzophenone; LC-ESI-QFT; MS2; CE: 30; R=17500; [M-H]-
Name: 2-Hydroxybenzophenone
Name: (2-hydroxyphenyl)-phenylmethanone
Formula: C13H10O2
Exact mass: 198.0681
SMILES: OC1=CC=CC=C1C(=O)C1=CC=CC=C1
InChI: InChI=1S/C13H10O2/c14-12-9-5-4-8-11(12)13(15)10-6-2-1-3-7-10/h1-9,14H
Instrument: Q Exactive Orbitrap (Thermo Scientific)
Instrument type: LC-ESI-QFT
Ms type: MS2
Ion mode: NEGATIVE
Ionization: ESI
Fragmentation mode: HCD
Collision energy: 30
Resolution: 17500
Column name: Acquity BEH C18 1.7um, 2.1x150mm (Waters)
Retention time: 16.180 min
Base peak: 310.1233
Precursor m/z: 197.0608
Precursor type: [M-H]-
Precursor intensity: 309695.7509766
m/z	relative intensity	assigned
197.0608	999	C13H9O2-
