Mass spectrum: S-Metolachlor; LC-ESI-QFT; MS2; CE: 45; R=17500; [M+H]+
Name: S-Metolachlor
Name: 2-chloro-N-(2-ethyl-6-methylphenyl)-N-[(2S)-1-methoxypropan-2-yl]acetamide
Formula: C15H22ClNO2
Exact mass: 283.1339
SMILES: CCC1=C(N([C@@H](C)COC)C(=O)CCl)C(C)=CC=C1
InChI: InChI=1S/C15H22ClNO2/c1-5-13-8-6-7-11(2)15(13)17(14(18)9-16)12(3)10-19-4/h6-8,12H,5,9-10H2,1-4H3/t12-/m0/s1
Instrument: Q Exactive Orbitrap (Thermo Scientific)
Instrument type: LC-ESI-QFT
Ms type: MS2
Ion mode: POSITIVE
Ionization: ESI
Fragmentation mode: HCD
Collision energy: 45
Resolution: 17500
Column name: Acquity BEH C18 1.7um, 2.1x150mm (Waters)
Retention time: 18.173 min
Base peak: 79.0211
Precursor m/z: 284.1412
Precursor type: [M+H]+
Precursor intensity: 21961924.25
m/z	relative intensity	assigned
53.0022	1	C3HO+
60.0808	3	C3H10N+
73.0648	114	C4H9O+
76.9788	24	C2H2ClO+
91.054	4	C7H7+
107.049	1	C7H7O+
107.0856	1	C8H11+
108.0808	3	C7H10N+
109.0647	4	C7H9O+
117.0699	3	C9H9+
118.0651	2	C8H8N+
119.0727	1	C8H9N+
119.0856	10	C9H11+
120.0808	7	C8H10N+
130.0653	2	C9H8N+
131.073	3	C9H9N+
131.0856	2	C10H11+
132.0808	6	C9H10N+
133.0886	15	C9H11N+
134.0964	72	C9H12N+
135.0804	4	C9H11O+
136.1122	3	C9H14N+
137.0962	1	C9H13O+
143.0729	4	C10H9N+
144.0808	6	C10H10N+
145.0886	11	C10H11N+
146.0964	46	C10H12N+
147.1042	6	C10H13N+
148.0756	3	C9H10NO+
148.112	15	C10H14N+
158.0965	31	C11H12N+
159.1044	10	C11H13N+
159.1167	1	C12H15+
160.112	39	C11H14N+
161.1198	1	C11H15N+
162.0913	7	C10H12NO+
166.0418	1	C9H9ClN+
174.1279	12	C12H16N+
175.1356	5	C12H17N+
176.1434	925	C12H18N+
179.0497	1	C10H10ClN+
182.0731	2	C10H13ClN+
184.0524	44	C9H11ClNO+
188.107	3	C12H14NO+
192.0574	1	C11H11ClN+
194.0731	26	C11H13ClN+
202.1227	2	C13H16NO+
210.0683	3	C11H13ClNO+
212.0836	46	C11H15ClNO+
224.12	6	C13H19ClN+
234.1039	1	C14H17ClN+
252.1149	999	C14H19ClNO+
