Mass spectrum: Aminoglutethimide; LC-ESI-QFT; MS2; CE: 30; R=17500; [M+H]+
Name: Aminoglutethimide
Name: 3-(4-aminophenyl)-3-ethylpiperidine-2,6-dione
Formula: C13H16N2O2
Exact mass: 232.1212
SMILES: CCC1(CCC(=O)NC1=O)C1=CC=C(N)C=C1
InChI: InChI=1S/C13H16N2O2/c1-2-13(8-7-11(16)15-12(13)17)9-3-5-10(14)6-4-9/h3-6H,2,7-8,14H2,1H3,(H,15,16,17)
Instrument: Q Exactive Orbitrap (Thermo Scientific)
Instrument type: LC-ESI-QFT
Ms type: MS2
Ion mode: POSITIVE
Ionization: ESI
Fragmentation mode: HCD
Collision energy: 30
Resolution: 17500
Column name: Acquity BEH C18 1.7um, 2.1x150mm (Waters)
Retention time: 13.560 min
Base peak: 79.0211
Precursor m/z: 233.1285
Precursor type: [M+H]+
Precursor intensity: 5919723.3125
m/z	relative intensity	assigned
72.0444	3	C3H6NO+
86.0601	6	C4H8NO+
130.0654	1	C9H8N+
143.073	1	C10H9N+
148.0756	1	C9H10NO+
159.068	8	C10H9NO+
162.0916	2	C10H12NO+
174.0914	999	C11H12NO+
188.1073	3	C12H14NO+
191.118	2	C11H15N2O+
198.0913	7	C13H12NO+
204.1018	2	C12H14NO2+
205.0011	3	C12HN2O2+
215.1178	1	C13H15N2O+
216.102	102	C13H14NO2+
233.1284	11	C13H17N2O2+
