Mass spectrum: 2,4,5-Trichlorophenol; LC-ESI-QFT; MS2; CE: 75; R=17500; [M-H]-
Name: 2,4,5-Trichlorophenol
Formula: C6H3Cl3O
Exact mass: 195.9249
SMILES: OC1=C(Cl)C=C(Cl)C(Cl)=C1
InChI: InChI=1S/C6H3Cl3O/c7-3-1-5(9)6(10)2-4(3)8/h1-2,10H
Instrument: Q Exactive Orbitrap (Thermo Scientific)
Instrument type: LC-ESI-QFT
Ms type: MS2
Ion mode: NEGATIVE
Ionization: ESI
Fragmentation mode: HCD
Collision energy: 75
Resolution: 17500
Column name: Acquity BEH C18 1.7um, 2.1x150mm (Waters)
Retention time: 18.535 min
Base peak: 194.9177
Precursor m/z: 194.9177
Precursor type: [M-H]-
Precursor intensity: 26487401.63477
m/z	relative intensity	assigned
94.9695	75	C5Cl-
122.9644	201	C6ClO-
130.9461	7	C5HCl2-
158.941	999	C6HCl2O-
194.9177	67	C6H2Cl3O-
