Mass spectrum: 1-Naphthol; LC-ESI-QFT; MS2; CE: 60; R=17500; [M+H]+
Name: 1-Naphthol
Name: naphthalen-1-ol
Formula: C10H8O
Exact mass: 144.0575
SMILES: OC1=CC=CC2=CC=CC=C12
InChI: InChI=1S/C10H8O/c11-10-7-3-5-8-4-1-2-6-9(8)10/h1-7,11H
Instrument: Q Exactive Orbitrap (Thermo Scientific)
Instrument type: LC-ESI-QFT
Ms type: MS2
Ion mode: POSITIVE
Ionization: ESI
Fragmentation mode: HCD
Collision energy: 60
Resolution: 17500
Column name: Acquity BEH C18 1.7um, 2.1x150mm (Waters)
Retention time: 15.689 min
Base peak: 79.0211
Precursor m/z: 145.0648
Precursor type: [M+H]+
Precursor intensity: 17905147.625
m/z	relative intensity	assigned
51.023	1	C4H3+
77.0386	1	C6H5+
91.0542	100	C7H7+
95.0491	4	C6H7O+
102.0464	2	C8H6+
103.0542	123	C8H7+
115.0543	272	C9H7+
116.0621	13	C9H8+
117.0699	843	C9H9+
126.0464	3	C10H6+
127.0542	125	C10H7+
128.062	2	C10H8+
130.0411	1	C9H6O+
131.0493	7	C9H7O+
144.057	17	C10H8O+
145.0648	999	C10H9O+
