Mass spectrum: N-Phenyl-2-naphthylamine; LC-ESI-QFT; MS2; CE: 30; R=17500; [M+H]+
Name: N-Phenyl-2-naphthylamine
Name: N-phenylnaphthalen-2-amine
Formula: C16H13N
Exact mass: 219.1048
SMILES: N(C1=CC=CC=C1)C1=CC=C2C=CC=CC2=C1
InChI: InChI=1S/C16H13N/c1-2-8-15(9-3-1)17-16-11-10-13-6-4-5-7-14(13)12-16/h1-12,17H
Instrument: Q Exactive Orbitrap (Thermo Scientific)
Instrument type: LC-ESI-QFT
Ms type: MS2
Ion mode: POSITIVE
Ionization: ESI
Fragmentation mode: HCD
Collision energy: 30
Resolution: 17500
Column name: Acquity BEH C18 1.7um, 2.1x150mm (Waters)
Retention time: 19.199 min
Base peak: 79.0212
Precursor m/z: 220.1121
Precursor type: [M+H]+
Precursor intensity: 15664619.4375
m/z	relative intensity	assigned
92.0495	42	C6H6N+
93.0576	1	C6H7N+
115.054	3	C9H7+
128.0619	12	C10H8+
142.0652	25	C10H8N+
143.0729	30	C10H9N+
193.1016	1	C15H13+
203.0852	2	C16H11+
205.0886	11	C15H11N+
218.097	2	C16H12N+
219.1048	2	C16H13N+
220.112	999	C16H14N+
