Mass spectrum: Dimethyl isophthalate; LC-ESI-QFT; MS2; CE: 15; R=17500; [M+H]+
Name: Dimethyl isophthalate
Name: dimethyl benzene-1,3-dicarboxylate
Formula: C10H10O4
Exact mass: 194.0579
SMILES: COC(=O)C1=CC(=CC=C1)C(=O)OC
InChI: InChI=1S/C10H10O4/c1-13-9(11)7-4-3-5-8(6-7)10(12)14-2/h3-6H,1-2H3
Instrument: Q Exactive Orbitrap (Thermo Scientific)
Instrument type: LC-ESI-QFT
Ms type: MS2
Ion mode: POSITIVE
Ionization: ESI
Fragmentation mode: HCD
Collision energy: 15
Resolution: 17500
Column name: Acquity BEH C18 1.7um, 2.1x150mm (Waters)
Retention time: 19.241 min
Base peak: 79.0211
Precursor m/z: 195.0652
Precursor type: [M+H]+
Precursor intensity: 866545.3125
m/z	relative intensity	assigned
163.039	999	C9H7O3+
195.0655	4	C10H11O4+
