Mass spectrum: Methylparaben; LC-ESI-QFT; MS2; CE: 90; R=17500; [M-H]-
Name: Methylparaben
Name: methyl 4-hydroxybenzoate
Formula: C8H8O3
Exact mass: 152.0473
SMILES: COC(=O)C1=CC=C(O)C=C1
InChI: InChI=1S/C8H8O3/c1-11-8(10)6-2-4-7(9)5-3-6/h2-5,9H,1H3
Instrument: Q Exactive Orbitrap (Thermo Scientific)
Instrument type: LC-ESI-QFT
Ms type: MS2
Ion mode: NEGATIVE
Ionization: ESI
Fragmentation mode: HCD
Collision energy: 90
Resolution: 17500
Column name: Acquity BEH C18 1.7um, 2.1x150mm (Waters)
Retention time: 14.170 min
Base peak: 151.04
Precursor m/z: 151.0401
Precursor type: [M-H]-
Precursor intensity: 4975787.831055
m/z	relative intensity	assigned
67.019	8	C4H3O-
68.9983	26	C3HO2-
69.0347	26	C4H5O-
70.0062	8	C3H2O2-
71.0139	21	C3H3O2-
72.9932	11	C2HO3-
79.9906	11	C4O2-
82.0061	64	C4H2O2-
91.019	194	C6H3O-
92.0268	258	C6H4O-
93.0346	20	C6H5O-
95.0139	977	C5H3O2-
97.0294	15	C5H5O2-
106.0061	50	C6H2O2-
108.0217	999	C6H4O2-
121.0296	54	C7H5O2-
123.0088	124	C6H3O3-
136.0166	80	C7H4O3-
151.0402	12	C8H7O3-
