Mass spectrum: S-Metolachlor; LC-ESI-QFT; MS2; CE: 90; R=17500; [M+H]+
Name: S-Metolachlor
Name: 2-chloro-N-(2-ethyl-6-methylphenyl)-N-[(2S)-1-methoxypropan-2-yl]acetamide
Formula: C15H22ClNO2
Exact mass: 283.1339
SMILES: CCC1=C(N([C@@H](C)COC)C(=O)CCl)C(C)=CC=C1
InChI: InChI=1S/C15H22ClNO2/c1-5-13-8-6-7-11(2)15(13)17(14(18)9-16)12(3)10-19-4/h6-8,12H,5,9-10H2,1-4H3/t12-/m0/s1
Instrument: Q Exactive Orbitrap (Thermo Scientific)
Instrument type: LC-ESI-QFT
Ms type: MS2
Ion mode: POSITIVE
Ionization: ESI
Fragmentation mode: HCD
Collision energy: 90
Resolution: 17500
Column name: Acquity BEH C18 1.7um, 2.1x150mm (Waters)
Retention time: 18.173 min
Base peak: 79.0211
Precursor m/z: 284.1412
Precursor type: [M+H]+
Precursor intensity: 21449184
m/z	relative intensity	assigned
53.0022	42	C3HO+
53.0386	25	C4H5+
53.9975	8	C2NO+
56.0495	15	C3H6N+
58.0651	4	C3H8N+
60.0807	9	C3H10N+
65.0385	70	C5H5+
67.0542	7	C5H7+
73.0647	94	C4H9O+
75.9949	7	C2H3ClN+
76.9788	140	C2H2ClO+
78.0464	20	C6H6+
79.0542	97	C6H7+
81.0699	16	C6H9+
91.0542	999	C7H7+
92.0619	9	C7H8+
93.0573	149	C6H7N+
93.0699	110	C7H9+
94.0413	8	C6H6O+
94.0651	9	C6H8N+
95.0491	76	C6H7O+
103.0542	123	C8H7+
104.062	95	C8H8+
105.0699	100	C8H9+
106.0652	83	C7H8N+
106.0777	9	C8H10+
107.0492	24	C7H7O+
107.073	88	C7H9N+
107.0855	40	C8H11+
108.0808	356	C7H10N+
109.0648	126	C7H9O+
115.0543	241	C9H7+
116.062	37	C9H8+
117.0573	86	C8H7N+
117.0699	328	C9H9+
118.0651	252	C8H8N+
119.073	575	C8H9N+
119.0855	119	C9H11+
120.0808	289	C8H10N+
121.0649	8	C8H9O+
121.0887	3	C8H11N+
128.0622	14	C10H8+
129.07	34	C10H9+
130.0652	233	C9H8N+
131.073	378	C9H9N+
132.0808	586	C9H10N+
133.0886	718	C9H11N+
134.0964	541	C9H12N+
135.0807	6	C9H11O+
135.1039	6	C9H13N+
136.1121	9	C9H14N+
139.0308	5	C8H8Cl+
141.0699	13	C11H9+
142.0781	5	C11H10+
143.073	201	C10H9N+
143.0859	10	C11H11+
144.0808	382	C10H10N+
145.0886	265	C10H11N+
146.0603	44	C9H8NO+
146.0964	430	C10H12N+
147.0681	33	C9H9NO+
147.1042	31	C10H13N+
148.0756	16	C9H10NO+
148.1121	57	C10H14N+
156.0806	13	C11H10N+
157.0887	26	C11H11N+
158.0964	170	C11H12N+
159.1043	91	C11H13N+
160.1121	238	C11H14N+
161.12	21	C11H15N+
162.0913	35	C10H12NO+
162.128	5	C11H16N+
166.0417	15	C9H9ClN+
172.1117	4	C12H14N+
174.0918	3	C11H12NO+
174.1279	9	C12H16N+
176.1434	116	C12H18N+
178.0419	14	C10H9ClN+
184.0522	50	C9H11ClNO+
188.1074	7	C12H14NO+
