Mass spectrum: Acetochlor; LC-ESI-QFT; MS2; CE: 75; R=17500; [M+H]+
Name: Acetochlor
Name: 2-chloro-N-(ethoxymethyl)-N-(2-ethyl-6-methylphenyl)acetamide
Formula: C14H20ClNO2
Exact mass: 269.1183
SMILES: CCOCN(C(=O)CCl)C1=C(CC)C=CC=C1C
InChI: InChI=1S/C14H20ClNO2/c1-4-12-8-6-7-11(3)14(12)16(10-18-5-2)13(17)9-15/h6-8H,4-5,9-10H2,1-3H3
Instrument: Q Exactive Orbitrap (Thermo Scientific)
Instrument type: LC-ESI-QFT
Ms type: MS2
Ion mode: POSITIVE
Ionization: ESI
Fragmentation mode: HCD
Collision energy: 75
Resolution: 17500
Column name: Acquity BEH C18 1.7um, 2.1x150mm (Waters)
Retention time: 18.091 min
Base peak: 79.0211
Precursor m/z: 270.1255
Precursor type: [M+H]+
Precursor intensity: 8969349.90625
m/z	relative intensity	assigned
53.0386	35	C4H5+
54.0338	6	C3H4N+
57.0699	15	C4H9+
58.0651	4	C3H8N+
59.0492	4	C3H7O+
65.0385	10	C5H5+
74.0965	19	C4H12N+
77.0386	11	C6H5+
79.0543	242	C6H7+
80.0495	30	C5H6N+
81.0336	24	C5H5O+
81.0573	8	C5H7N+
90.0106	3	C3H5ClN+
91.0543	141	C7H7+
92.0496	20	C6H6N+
92.062	34	C7H8+
93.0573	9	C6H7N+
93.0699	77	C7H9+
94.0651	14	C6H8N+
95.0492	77	C6H7O+
96.0445	5	C5H6NO+
96.0808	16	C6H10N+
103.0543	57	C8H7+
104.0496	20	C7H6N+
105.0574	203	C7H7N+
110.0601	25	C6H8NO+
116.0277	37	C5H7ClN+
118.0653	47	C8H8N+
119.061	3	C6H12Cl+
119.0731	24	C8H9N+
120.0809	233	C8H10N+
124.0757	20	C7H10NO+
132.081	7	C9H10N+
133.0887	40	C9H11N+
138.0917	6	C8H12NO+
148.0758	999	C9H10NO+
158.0496	239	C8H11ClO+
