Mass spectrum: Isoprocarb; LC-ESI-QFT; MS2; CE: 45; R=17500; [M+H]+
Name: Isoprocarb
Name: (2-propan-2-ylphenyl) N-methylcarbamate
Formula: C11H15NO2
Exact mass: 193.1103
SMILES: CNC(=O)OC1=C(C=CC=C1)C(C)C
InChI: InChI=1S/C11H15NO2/c1-8(2)9-6-4-5-7-10(9)14-11(13)12-3/h4-8H,1-3H3,(H,12,13)
Instrument: Q Exactive Orbitrap (Thermo Scientific)
Instrument type: LC-ESI-QFT
Ms type: MS2
Ion mode: POSITIVE
Ionization: ESI
Fragmentation mode: HCD
Collision energy: 45
Resolution: 17500
Column name: Acquity BEH C18 1.7um, 2.1x150mm (Waters)
Retention time: 17.718 min
Base peak: 79.0212
Precursor m/z: 194.1176
Precursor type: [M+H]+
Precursor intensity: 18991789.75
m/z	relative intensity	assigned
65.0384	1	C5H5+
106.0652	2	C7H8N+
107.073	35	C7H9N+
120.0806	3	C8H10N+
121.0886	26	C8H11N+
122.0964	22	C8H12N+
134.06	119	C8H8NO+
135.0679	5	C8H9NO+
135.1039	1	C9H13N+
148.0756	10	C9H10NO+
150.0548	11	C8H8NO2+
151.0628	535	C8H9NO2+
164.0706	15	C9H10NO2+
165.0788	1	C9H11NO2+
166.0862	999	C9H12NO2+
178.0863	9	C10H12NO2+
179.094	743	C10H13NO2+
194.1176	532	C11H16NO2+
