Mass spectrum: 4,4`-(4-Methylpentane-2,2-diyl)diphenol; LC-ESI-QFT; MS2; CE: 15; R=17500; [M-H]-
Name: 4,4'-(4-Methylpentane-2,2-diyl)diphenol
Name: 4-[2-(4-hydroxyphenyl)-4-methylpentan-2-yl]phenol
Formula: C18H22O2
Exact mass: 270.1620
SMILES: CC(C)CC(C)(C1=CC=C(O)C=C1)C1=CC=C(O)C=C1
InChI: InChI=1S/C18H22O2/c1-13(2)12-18(3,14-4-8-16(19)9-5-14)15-6-10-17(20)11-7-15/h4-11,13,19-20H,12H2,1-3H3
Instrument: Q Exactive Orbitrap (Thermo Scientific)
Instrument type: LC-ESI-QFT
Ms type: MS2
Ion mode: NEGATIVE
Ionization: ESI
Fragmentation mode: HCD
Collision energy: 15
Resolution: 17500
Column name: Acquity BEH C18 1.7um, 2.1x150mm (Waters)
Retention time: 17.718 min
Base peak: 317.1618
Precursor m/z: 269.1547
Precursor type: [M-H]-
Precursor intensity: 1481814.03125
m/z	relative intensity	assigned
108.0219	5	C6H4O2-
119.0505	12	C8H7O-
133.0659	522	C9H9O-
135.0816	126	C9H11O-
269.1548	999	C18H21O2-
