Mass spectrum: Acetochlor; LC-ESI-QFT; MS2; CE: 60; R=17500; [M+H]+
Name: Acetochlor
Name: 2-chloro-N-(ethoxymethyl)-N-(2-ethyl-6-methylphenyl)acetamide
Formula: C14H20ClNO2
Exact mass: 269.1183
SMILES: CCOCN(C(=O)CCl)C1=C(CC)C=CC=C1C
InChI: InChI=1S/C14H20ClNO2/c1-4-12-8-6-7-11(3)14(12)16(10-18-5-2)13(17)9-15/h6-8H,4-5,9-10H2,1-3H3
Instrument: Q Exactive Orbitrap (Thermo Scientific)
Instrument type: LC-ESI-QFT
Ms type: MS2
Ion mode: POSITIVE
Ionization: ESI
Fragmentation mode: HCD
Collision energy: 60
Resolution: 17500
Column name: Acquity BEH C18 1.7um, 2.1x150mm (Waters)
Retention time: 18.091 min
Base peak: 79.0211
Precursor m/z: 270.1255
Precursor type: [M+H]+
Precursor intensity: 8062323.8125
m/z	relative intensity	assigned
53.0386	2	C4H5+
57.0699	6	C4H9+
58.0651	1	C3H8N+
59.0491	6	C3H7O+
65.0386	2	C5H5+
74.0964	11	C4H12N+
79.0543	62	C6H7+
80.0494	7	C5H6N+
81.0335	8	C5H5O+
81.0572	2	C5H7N+
90.0104	2	C3H5ClN+
91.0543	22	C7H7+
92.0495	3	C6H6N+
92.0617	8	C7H8+
93.07	20	C7H9+
94.0651	3	C6H8N+
95.0493	8	C6H7O+
96.0809	10	C6H10N+
103.0542	12	C8H7+
104.0495	2	C7H6N+
105.0574	27	C7H7N+
110.06	3	C6H8NO+
116.0278	8	C5H7ClN+
118.065	8	C8H8N+
119.0729	2	C8H9N+
120.0808	80	C8H10N+
124.0756	11	C7H10NO+
133.0886	14	C9H11N+
138.0913	2	C8H12NO+
148.0758	999	C9H10NO+
158.0496	237	C8H11ClO+
214.1127	3	C12H19ClO+
