Mass spectrum: 17alpha-Hydroxyprogesterone; LC-ESI-QFT; MS2; CE: 60; R=17500; [M+H]+
Name: 17alpha-Hydroxyprogesterone
Name: (8R,9S,10R,13S,14S,17R)-17-acetyl-17-hydroxy-10,13-dimethyl-2,6,7,8,9,11,12,14,15,16-decahydro-1H-cyclopenta[a]phenanthren-3-one
Formula: C21H30O3
Exact mass: 330.2195
SMILES: CC(=O)[C@@]1(O)CC[C@H]2[C@@H]3CCC4=CC(=O)CC[C@]4(C)[C@H]3CC[C@]12C
InChI: InChI=1S/C21H30O3/c1-13(22)21(24)11-8-18-16-5-4-14-12-15(23)6-9-19(14,2)17(16)7-10-20(18,21)3/h12,16-18,24H,4-11H2,1-3H3/t16-,17+,18+,19+,20+,21+/m1/s1
Instrument: Q Exactive Orbitrap (Thermo Scientific)
Instrument type: LC-ESI-QFT
Ms type: MS2
Ion mode: POSITIVE
Ionization: ESI
Fragmentation mode: HCD
Collision energy: 60
Resolution: 17500
Column name: Acquity BEH C18 1.7um, 2.1x150mm (Waters)
Retention time: 17.832 min
Base peak: 79.0211
Precursor m/z: 331.2268
Precursor type: [M+H]+
Precursor intensity: 5189240.9375
m/z	relative intensity	assigned
53.0023	2	C3HO+
53.0386	8	C4H5+
55.0179	17	C3H3O+
55.0543	15	C4H7+
57.0335	3	C3H5O+
59.0492	4	C3H7O+
61.0284	3	C2H5O2+
65.0386	3	C5H5+
67.0542	39	C5H7+
69.0335	7	C4H5O+
69.0699	28	C5H9+
71.0491	5	C4H7O+
77.0386	1	C6H5+
79.0543	129	C6H7+
81.0699	145	C6H9+
82.0411	1	C5H6O+
83.0492	66	C5H7O+
83.0855	3	C6H11+
85.0649	4	C5H9O+
87.0442	4	C4H7O2+
91.0543	48	C7H7+
93.07	73	C7H9+
94.0414	3	C6H6O+
95.0492	16	C6H7O+
95.0856	69	C7H11+
97.0649	999	C6H9O+
99.0805	2	C6H11O+
103.0542	1	C8H7+
105.07	72	C8H9+
107.0493	10	C7H7O+
107.0856	51	C8H11+
109.0649	990	C7H9O+
111.0805	14	C7H11O+
115.0546	1	C9H7+
117.07	20	C9H9+
119.0856	73	C9H11+
121.0649	24	C8H9O+
121.1013	24	C9H13+
123.0805	134	C8H11O+
127.0757	1	C7H11O2+
128.062	3	C10H8+
129.07	20	C10H9+
130.0779	3	C10H10+
131.0857	41	C10H11+
133.0648	2	C9H9O+
133.1013	47	C10H13+
135.0806	13	C9H11O+
135.1171	14	C10H15+
137.0962	22	C9H13O+
141.07	3	C11H9+
142.0778	6	C11H10+
143.0857	44	C11H11+
144.0933	4	C11H12+
145.1013	84	C11H13+
146.109	2	C11H14+
147.0805	10	C10H11O+
147.1169	45	C11H15+
149.0962	14	C10H13O+
149.1326	7	C11H17+
153.0693	1	C12H9+
154.0776	2	C12H10+
155.0856	18	C12H11+
156.0934	8	C12H12+
157.1013	41	C12H13+
159.0808	3	C11H11O+
159.117	49	C12H15+
160.1246	2	C12H16+
161.0961	8	C11H13O+
161.1325	23	C12H17+
163.1119	38	C11H15O+
163.1481	5	C12H19+
165.0705	1	C13H9+
166.0784	2	C13H10+
167.0855	4	C13H11+
168.0937	2	C13H12+
169.1013	27	C13H13+
170.1088	2	C13H14+
171.1169	39	C13H15+
173.0958	4	C12H13O+
173.1326	26	C13H17+
175.1121	10	C12H15O+
175.1484	18	C13H19+
177.1275	12	C12H17O+
179.0857	2	C14H11+
180.093	1	C14H12+
181.101	6	C14H13+
182.1091	4	C14H14+
183.117	20	C14H15+
184.1242	2	C14H16+
185.0959	2	C13H13O+
185.1326	23	C14H17+
187.1482	11	C14H19+
189.1272	7	C13H17O+
189.1636	1	C14H21+
193.1013	2	C15H13+
195.1169	12	C15H15+
196.1248	3	C15H16+
197.1325	20	C15H17+
199.1117	4	C14H15O+
199.1481	15	C15H19+
201.1273	3	C14H17O+
201.1643	2	C15H21+
203.1423	1	C14H19O+
205.1586	2	C14H21O+
207.1171	3	C16H15+
209.1323	5	C16H17+
211.1483	15	C16H19+
213.1268	2	C15H17O+
213.1638	15	C16H21+
215.1437	2	C15H19O+
221.1323	3	C17H17+
223.1479	4	C17H19+
225.1635	5	C17H21+
227.1792	2	C17H23+
235.148	2	C18H19+
237.164	9	C18H21+
241.1582	3	C17H21O+
251.1791	2	C19H23+
252.1872	4	C19H24+
253.1947	9	C19H25+
255.1747	4	C18H23O+
295.2063	2	C21H27O+
