Mass spectrum: Methyl 2-methoxybenzoate; LC-ESI-QFT; MS2; CE: 90; R=17500; [M-H]-
Name: Methyl 2-methoxybenzoate
Formula: C9H10O3
Exact mass: 166.0630
SMILES: COC(=O)C1=C(OC)C=CC=C1
InChI: InChI=1S/C9H10O3/c1-11-8-6-4-3-5-7(8)9(10)12-2/h3-6H,1-2H3
Instrument: Q Exactive Orbitrap (Thermo Scientific)
Instrument type: LC-ESI-QFT
Ms type: MS2
Ion mode: NEGATIVE
Ionization: ESI
Fragmentation mode: HCD
Collision energy: 90
Resolution: 17500
Column name: Acquity BEH C18 1.7um, 2.1x150mm (Waters)
Retention time: 15.443 min
Base peak: 165.0556
Precursor m/z: 165.0557
Precursor type: [M-H]-
Precursor intensity: 29720568.2627
m/z	relative intensity	assigned
53.0033	1	C3HO-
65.0397	23	C5H5-
67.019	2	C4H3O-
68.9982	5	C3HO2-
69.0346	6	C4H5O-
70.0061	1	C3H2O2-
71.0139	4	C3H3O2-
72.9932	1	C2HO3-
79.019	2	C5H3O-
79.9904	2	C4O2-
80.9983	1	C4HO2-
82.0061	15	C4H2O2-
91.019	45	C6H3O-
92.0269	79	C6H4O-
93.0346	999	C6H5O-
95.0138	237	C5H3O2-
97.0295	4	C5H5O2-
98.0012	1	C4H2O3-
106.0061	12	C6H2O2-
107.0503	1	C7H7O-
108.0217	224	C6H4O2-
109.0293	1	C6H5O2-
121.0296	11	C7H5O2-
123.0088	29	C6H3O3-
136.0167	9	C7H4O3-
137.0245	16	C7H5O3-
