Mass spectrum: Trifluoromethanesulfonic acid; LC-ESI-QFT; MS2; CE: 15; R=17500; [M-H]-
Name: Trifluoromethanesulfonic acid
Formula: CHF3O3S
Exact mass: 149.9598
SMILES: OS(=O)(=O)C(F)(F)F
InChI: InChI=1S/CHF3O3S/c2-1(3,4)8(5,6)7/h(H,5,6,7)
Instrument: Q Exactive Orbitrap (Thermo Scientific)
Instrument type: LC-ESI-QFT
Ms type: MS2
Ion mode: NEGATIVE
Ionization: ESI
Fragmentation mode: HCD
Collision energy: 15
Resolution: 17500
Column name: Acquity BEH C18 1.7um, 2.1x150mm (Waters)
Retention time: 3.586 min
Base peak: 148.9525
Precursor m/z: 148.9526
Precursor type: [M-H]-
Precursor intensity: 26437589.26514
m/z	relative intensity	assigned
68.9955	1	CF3-
79.9574	181	O3S-
82.9609	14	FO2S-
98.9558	16	FO3S-
148.9525	999	CF3O3S-
