Mass spectrum: Dipropyl phthalate; LC-ESI-QFT; MS2; CE: 15; R=17500; [M-H]-
Name: Dipropyl phthalate
Name: dipropyl benzene-1,2-dicarboxylate
Formula: C14H18O4
Exact mass: 250.1205
SMILES: CCCOC(=O)C1=C(C=CC=C1)C(=O)OCCC
InChI: InChI=1S/C14H18O4/c1-3-9-17-13(15)11-7-5-6-8-12(11)14(16)18-10-4-2/h5-8H,3-4,9-10H2,1-2H3
Instrument: Q Exactive Orbitrap (Thermo Scientific)
Instrument type: LC-ESI-QFT
Ms type: MS2
Ion mode: NEGATIVE
Ionization: ESI
Fragmentation mode: HCD
Collision energy: 15
Resolution: 17500
Column name: Acquity BEH C18 1.7um, 2.1x150mm (Waters)
Retention time: 17.064 min
Base peak: 213.0557
Precursor m/z: 249.1132
Precursor type: [M-H]-
Precursor intensity: 12384270.16797
m/z	relative intensity	assigned
59.0138	19	C2H3O2-
149.097	10	C10H13O-
177.1287	10	C12H17O-
204.0818	75	C12H12O3-
205.0852	999	C12H13O3-
221.1183	248	C13H17O3-
222.0924	54	C12H14O4-
223.0959	570	C12H15O4-
249.113	55	C14H17O4-
