Mass spectrum: N-Phenyl-1-naphthylamine; LC-ESI-QFT; MS2; CE: 15; R=17500; [M+H]+
Name: N-Phenyl-1-naphthylamine
Name: N-phenylnaphthalen-1-amine
Formula: C16H13N
Exact mass: 219.1048
SMILES: N(C1=CC=CC=C1)C1=C2C=CC=CC2=CC=C1
InChI: InChI=1S/C16H13N/c1-2-9-14(10-3-1)17-16-12-6-8-13-7-4-5-11-15(13)16/h1-12,17H
Instrument: Q Exactive Orbitrap (Thermo Scientific)
Instrument type: LC-ESI-QFT
Ms type: MS2
Ion mode: POSITIVE
Ionization: ESI
Fragmentation mode: HCD
Collision energy: 15
Resolution: 17500
Column name: Acquity BEH C18 1.7um, 2.1x150mm (Waters)
Retention time: 19.137 min
Base peak: 79.0212
Precursor m/z: 220.1121
Precursor type: [M+H]+
Precursor intensity: 6605655.59375
m/z	relative intensity	assigned
92.0494	12	C6H6N+
115.0547	1	C9H7+
128.0619	4	C10H8+
142.0651	9	C10H8N+
143.0725	4	C10H9N+
205.0888	4	C15H11N+
218.0971	1	C16H12N+
219.1041	1	C16H13N+
220.112	999	C16H14N+
