Mass spectrum: Tebufenpyrad; LC-ESI-QFT; MS2; CE: 30; R=17500; [M+H]+
Name: Tebufenpyrad
Name: N-[(4-tert-butylphenyl)methyl]-4-chloro-5-ethyl-2-methylpyrazole-3-carboxamide
Formula: C18H24ClN3O
Exact mass: 333.1608
SMILES: CCC1=NN(C)C(C(=O)NCC2=CC=C(C=C2)C(C)(C)C)=C1Cl
InChI: InChI=1S/C18H24ClN3O/c1-6-14-15(19)16(22(5)21-14)17(23)20-11-12-7-9-13(10-8-12)18(2,3)4/h7-10H,6,11H2,1-5H3,(H,20,23)
Instrument: Q Exactive Orbitrap (Thermo Scientific)
Instrument type: LC-ESI-QFT
Ms type: MS2
Ion mode: POSITIVE
Ionization: ESI
Fragmentation mode: HCD
Collision energy: 30
Resolution: 17500
Column name: Acquity BEH C18 1.7um, 2.1x150mm (Waters)
Retention time: 19.332 min
Base peak: 79.0211
Precursor m/z: 334.1681
Precursor type: [M+H]+
Precursor intensity: 18832081.5
m/z	relative intensity	assigned
67.0541	1	C5H7+
69.0698	1	C5H9+
70.0399	999	C2H4N3+
81.0699	1	C6H9+
83.0855	2	C6H11+
95.0855	4	C7H11+
109.1011	11	C8H13+
121.1012	1	C9H13+
125.0152	23	C7H6Cl+
139.0308	2	C8H8Cl+
151.0308	5	C9H8Cl+
163.0307	2	C10H8Cl+
165.0465	2	C10H10Cl+
177.0465	6	C11H10Cl+
191.0621	13	C12H12Cl+
247.1245	4	C16H20Cl+
334.1681	165	C18H25ClN3O+
