Mass spectrum: Fuberidazole; LC-ESI-QFT; MS2; CE: 90; R=17500; [M-H]-
Name: Fuberidazole
Name: 2-(furan-2-yl)-1H-benzimidazole
Formula: C11H8N2O
Exact mass: 184.0637
SMILES: N1C2=CC=CC=C2N=C1C1=CC=CO1
InChI: InChI=1S/C11H8N2O/c1-2-5-9-8(4-1)12-11(13-9)10-6-3-7-14-10/h1-7H,(H,12,13)
Instrument: Q Exactive Orbitrap (Thermo Scientific)
Instrument type: LC-ESI-QFT
Ms type: MS2
Ion mode: NEGATIVE
Ionization: ESI
Fragmentation mode: HCD
Collision energy: 90
Resolution: 17500
Column name: Acquity BEH C18 1.7um, 2.1x150mm (Waters)
Retention time: 11.707 min
Base peak: 116.9285
Precursor m/z: 183.0564
Precursor type: [M-H]-
Precursor intensity: 242492.638916
m/z	relative intensity	assigned
117.0457	74	C7H5N2-
154.0537	838	C10H6N2-
155.0615	999	C10H7N2-
