Mass spectrum: N-Phenyl-1-naphthylamine; LC-ESI-QFT; MS2; CE: 60; R=17500; [M+H]+
Name: N-Phenyl-1-naphthylamine
Name: N-phenylnaphthalen-1-amine
Formula: C16H13N
Exact mass: 219.1048
SMILES: N(C1=CC=CC=C1)C1=C2C=CC=CC2=CC=C1
InChI: InChI=1S/C16H13N/c1-2-9-14(10-3-1)17-16-12-6-8-13-7-4-5-11-15(13)16/h1-12,17H
Instrument: Q Exactive Orbitrap (Thermo Scientific)
Instrument type: LC-ESI-QFT
Ms type: MS2
Ion mode: POSITIVE
Ionization: ESI
Fragmentation mode: HCD
Collision energy: 60
Resolution: 17500
Column name: Acquity BEH C18 1.7um, 2.1x150mm (Waters)
Retention time: 19.137 min
Base peak: 79.0212
Precursor m/z: 220.1121
Precursor type: [M+H]+
Precursor intensity: 6496007.75
m/z	relative intensity	assigned
63.0229	2	C5H3+
65.0386	191	C5H5+
91.0543	7	C7H7+
92.0495	999	C6H6N+
93.0574	36	C6H7N+
103.0543	3	C8H7+
104.0494	6	C7H6N+
115.0543	387	C9H7+
117.0699	11	C9H9+
127.0542	3	C10H7+
128.0621	540	C10H8+
142.0653	191	C10H8N+
143.073	438	C10H9N+
153.0699	2	C12H9+
165.0697	2	C13H9+
178.0777	17	C14H10+
179.0855	3	C14H11+
180.0804	1	C13H10N+
191.0729	2	C14H9N+
191.085	1	C15H11+
192.0806	1	C14H10N+
193.0898	1	C14H11N+
193.1012	7	C15H13+
202.0779	30	C16H10+
203.0857	51	C16H11+
204.0811	65	C15H10N+
204.0928	7	C16H12+
205.0887	73	C15H11N+
217.0888	7	C16H11N+
218.0967	34	C16H12N+
219.1043	52	C16H13N+
220.1122	197	C16H14N+
