Mass spectrum: 4-Nitrophenol; LC-ESI-QFT; MS2; CE: 15; R=17500; [M-H]-
Name: 4-Nitrophenol
Formula: C6H5NO3
Exact mass: 139.0269
SMILES: OC1=CC=C(C=C1)[N+]([O-])=O
InChI: InChI=1S/C6H5NO3/c8-6-3-1-5(2-4-6)7(9)10/h1-4,8H
Instrument: Q Exactive Orbitrap (Thermo Scientific)
Instrument type: LC-ESI-QFT
Ms type: MS2
Ion mode: NEGATIVE
Ionization: ESI
Fragmentation mode: HCD
Collision energy: 15
Resolution: 17500
Column name: Acquity BEH C18 1.7um, 2.1x150mm (Waters)
Retention time: 13.856 min
Base peak: 138.0196
Precursor m/z: 138.0197
Precursor type: [M-H]-
Precursor intensity: 40357321.10254
m/z	relative intensity	assigned
95.0138	1	C5H3O2-
108.0217	611	C6H4O2-
138.0197	999	C6H4NO3-
