Mass spectrum: Amiprofos-methyl; LC-ESI-QFT; MS2; CE: 75; R=17500; [M-H]-
Name: Amiprofos-methyl
Name: N-[methoxy-(4-methyl-2-nitrophenoxy)phosphinothioyl]propan-2-amine
Formula: C11H17N2O4PS
Exact mass: 304.0647
SMILES: COP(=S)(NC(C)C)OC1=C(C=C(C)C=C1)[N+]([O-])=O
InChI: InChI=1S/C11H17N2O4PS/c1-8(2)12-18(19,16-4)17-11-6-5-9(3)7-10(11)13(14)15/h5-8H,1-4H3,(H,12,19)
Instrument: Q Exactive Orbitrap (Thermo Scientific)
Instrument type: LC-ESI-QFT
Ms type: MS2
Ion mode: NEGATIVE
Ionization: ESI
Fragmentation mode: HCD
Collision energy: 75
Resolution: 17500
Column name: Acquity BEH C18 1.7um, 2.1x150mm (Waters)
Retention time: 17.948 min
Base peak: 112.9857
Precursor m/z: 303.0574
Precursor type: [M-H]-
Precursor intensity: 210309.3183594
m/z	relative intensity	assigned
62.9643	523	O2P-
78.9591	362	O3P-
94.9363	999	O2PS-
131.0614	533	C8H7N2-
143.0617	945	C9H7N2-
