Mass spectrum: Salicylic acid p-tolyl ester; LC-ESI-QFT; MS2; CE: 60; R=17500; [M-H]-
Name: Salicylic acid p-tolyl ester
Name: p-Tolyl salicylate
Name: (4-methylphenyl) 2-hydroxybenzoate
Formula: C14H12O3
Exact mass: 228.0786
SMILES: CC1=CC=C(OC(=O)C2=C(O)C=CC=C2)C=C1
InChI: InChI=1S/C14H12O3/c1-10-6-8-11(9-7-10)17-14(16)12-4-2-3-5-13(12)15/h2-9,15H,1H3
Instrument: Q Exactive Orbitrap (Thermo Scientific)
Instrument type: LC-ESI-QFT
Ms type: MS2
Ion mode: NEGATIVE
Ionization: ESI
Fragmentation mode: HCD
Collision energy: 60
Resolution: 17500
Column name: Acquity BEH C18 1.7um, 2.1x150mm (Waters)
Retention time: 17.501 min
Base peak: 227.0713
Precursor m/z: 227.0714
Precursor type: [M-H]-
Precursor intensity: 69731216.81641
m/z	relative intensity	assigned
53.0032	2	C3HO-
65.0033	3	C4HO-
66.0111	2	C4H2O-
67.0189	7	C4H3O-
68.9982	29	C3HO2-
69.0346	23	C4H5O-
70.006	14	C3H2O2-
71.0139	16	C3H3O2-
72.9931	13	C2HO3-
78.0112	5	C5H2O-
79.0189	16	C5H3O-
79.9904	12	C4O2-
80.9983	9	C4HO2-
82.006	75	C4H2O2-
83.0139	3	C4H3O2-
86.0011	4	C3H2O3-
91.0191	4	C6H3O-
92.0268	366	C6H4O-
93.0346	10	C6H5O-
95.0138	999	C5H3O2-
97.0295	12	C5H5O2-
98.0009	5	C4H2O3-
106.006	54	C6H2O2-
107.0139	6	C6H3O2-
107.0502	14	C7H7O-
108.0217	915	C6H4O2-
109.0293	2	C6H5O2-
121.0296	8	C7H5O2-
123.0088	127	C6H3O3-
125.0241	1	C6H5O3-
136.0165	283	C7H4O3-
183.0814	5	C13H11O-
227.0712	2	C14H11O3-
