Mass spectrum: 4-Chlorophenylurea; LC-ESI-QFT; MS2; CE: 15; R=17500; [M-H]-
Name: 4-Chlorophenylurea
Name: (4-chlorophenyl)urea
Formula: C7H7ClN2O
Exact mass: 170.0247
SMILES: NC(=O)NC1=CC=C(Cl)C=C1
InChI: InChI=1S/C7H7ClN2O/c8-5-1-3-6(4-2-5)10-7(9)11/h1-4H,(H3,9,10,11)
Instrument: Q Exactive Orbitrap (Thermo Scientific)
Instrument type: LC-ESI-QFT
Ms type: MS2
Ion mode: NEGATIVE
Ionization: ESI
Fragmentation mode: HCD
Collision energy: 15
Resolution: 17500
Column name: Acquity BEH C18 1.7um, 2.1x150mm (Waters)
Retention time: 14.476 min
Base peak: 112.9856
Precursor m/z: 169.0174
Precursor type: [M-H]-
Precursor intensity: 4768291.647461
m/z	relative intensity	assigned
126.0116	999	C6H5ClN-
169.0173	32	C7H6ClN2O-
