Mass spectrum: Warfarin; LC-ESI-QFT; MS2; CE: 60; R=17500; [M-H]-
Name: Warfarin
Name: 4-hydroxy-3-(3-oxo-1-phenylbutyl)chromen-2-one
Formula: C19H16O4
Exact mass: 308.1049
SMILES: CC(=O)CC(C1=CC=CC=C1)C1=C(O)C2=CC=CC=C2OC1=O
InChI: InChI=1S/C19H16O4/c1-12(20)11-15(13-7-3-2-4-8-13)17-18(21)14-9-5-6-10-16(14)23-19(17)22/h2-10,15,21H,11H2,1H3
Instrument: Q Exactive Orbitrap (Thermo Scientific)
Instrument type: LC-ESI-QFT
Ms type: MS2
Ion mode: NEGATIVE
Ionization: ESI
Fragmentation mode: HCD
Collision energy: 60
Resolution: 17500
Column name: Acquity BEH C18 1.7um, 2.1x150mm (Waters)
Retention time: 17.453 min
Base peak: 307.0974
Precursor m/z: 307.0976
Precursor type: [M-H]-
Precursor intensity: 91301129.59961
m/z	relative intensity	assigned
57.0346	884	C3H5O-
83.0139	25	C4H3O2-
91.0553	3	C7H7-
93.0346	56	C6H5O-
95.0138	2	C5H3O2-
101.0397	11	C8H5-
108.0216	4	C6H4O2-
115.0553	5	C9H7-
117.0346	999	C8H5O-
119.0503	5	C8H7O-
129.071	2	C10H9-
130.0423	16	C9H6O-
133.0292	2	C8H5O2-
133.0659	11	C9H9O-
135.0453	4	C8H7O2-
141.0711	6	C11H9-
143.0502	3	C10H7O-
145.0295	3	C9H5O2-
145.066	8	C10H9O-
147.0452	2	C9H7O2-
157.066	13	C11H9O-
161.0245	688	C9H5O3-
187.0762	3	C12H11O2-
193.0661	8	C14H9O-
195.0815	26	C14H11O-
205.0661	11	C15H9O-
206.0737	79	C15H10O-
219.0814	15	C16H11O-
221.0609	12	C15H9O2-
221.0972	8	C16H13O-
222.0686	14	C15H10O2-
223.0766	23	C15H11O2-
233.0967	4	C17H13O-
245.0973	2	C18H13O-
247.0757	1	C17H11O2-
249.0559	7	C16H9O3-
250.0636	334	C16H10O3-
261.0922	7	C18H13O2-
