Mass spectrum: Fuberidazole; LC-ESI-QFT; MS2; CE: 60; R=17500; [M-H]-
Name: Fuberidazole
Name: 2-(furan-2-yl)-1H-benzimidazole
Formula: C11H8N2O
Exact mass: 184.0637
SMILES: N1C2=CC=CC=C2N=C1C1=CC=CO1
InChI: InChI=1S/C11H8N2O/c1-2-5-9-8(4-1)12-11(13-9)10-6-3-7-14-10/h1-7H,(H,12,13)
Instrument: Q Exactive Orbitrap (Thermo Scientific)
Instrument type: LC-ESI-QFT
Ms type: MS2
Ion mode: NEGATIVE
Ionization: ESI
Fragmentation mode: HCD
Collision energy: 60
Resolution: 17500
Column name: Acquity BEH C18 1.7um, 2.1x150mm (Waters)
Retention time: 18.966 min
Base peak: 239.0673
Precursor m/z: 183.0564
Precursor type: [M-H]-
Precursor intensity: 16971892.82422
m/z	relative intensity	assigned
107.0504	3	C7H7O-
141.0112	5	C8HN2O-
167.0267	19	C10H3N2O-
168.0345	6	C10H4N2O-
181.0426	11	C11H5N2O-
183.0582	999	C11H7N2O-
