Mass spectrum: 2-Methyl-5-nitrobenzenesulfonic acid; LC-ESI-QFT; MS2; CE: 30; R=17500; [M-H]-
Name: 2-Methyl-5-nitrobenzenesulfonic acid
Formula: C7H7NO5S
Exact mass: 217.0045
SMILES: CC1=CC=C(C=C1S(O)(=O)=O)[N+]([O-])=O
InChI: InChI=1S/C7H7NO5S/c1-5-2-3-6(8(9)10)4-7(5)14(11,12)13/h2-4H,1H3,(H,11,12,13)
Instrument: Q Exactive Orbitrap (Thermo Scientific)
Instrument type: LC-ESI-QFT
Ms type: MS2
Ion mode: NEGATIVE
Ionization: ESI
Fragmentation mode: HCD
Collision energy: 30
Resolution: 17500
Column name: Acquity BEH C18 1.7um, 2.1x150mm (Waters)
Retention time: 17.574 min
Base peak: 215.9988
Precursor m/z: 215.9972
Precursor type: [M-H]-
Precursor intensity: 74822007.78516
m/z	relative intensity	assigned
159.9726	774	C4H2NO4S-
160.9565	4	C4HO5S-
185.952	1	C5NO5S-
215.9987	999	C7H6NO5S-
