Mass spectrum: 4-Chloro-3,5-dimethylphenol; LC-ESI-QFT; MS2; CE: 15; R=17500; [M-H]-
Name: 4-Chloro-3,5-dimethylphenol
Formula: C8H9ClO
Exact mass: 156.0342
SMILES: CC1=CC(O)=CC(C)=C1Cl
InChI: InChI=1S/C8H9ClO/c1-5-3-7(10)4-6(2)8(5)9/h3-4,10H,1-2H3
Instrument: Q Exactive Orbitrap (Thermo Scientific)
Instrument type: LC-ESI-QFT
Ms type: MS2
Ion mode: NEGATIVE
Ionization: ESI
Fragmentation mode: HCD
Collision energy: 15
Resolution: 17500
Column name: Acquity BEH C18 1.7um, 2.1x150mm (Waters)
Retention time: 17.703 min
Base peak: 269.0544
Precursor m/z: 155.0269
Precursor type: [M-H]-
Precursor intensity: 639342.1982422
m/z	relative intensity	assigned
155.027	999	C8H8ClO-
