Mass spectrum: Fuberidazole; LC-ESI-QFT; MS2; CE: 30; R=17500; [M-H]-
Name: Fuberidazole
Name: 2-(furan-2-yl)-1H-benzimidazole
Formula: C11H8N2O
Exact mass: 184.0637
SMILES: N1C2=CC=CC=C2N=C1C1=CC=CO1
InChI: InChI=1S/C11H8N2O/c1-2-5-9-8(4-1)12-11(13-9)10-6-3-7-14-10/h1-7H,(H,12,13)
Instrument: Q Exactive Orbitrap (Thermo Scientific)
Instrument type: LC-ESI-QFT
Ms type: MS2
Ion mode: NEGATIVE
Ionization: ESI
Fragmentation mode: HCD
Collision energy: 30
Resolution: 17500
Column name: Acquity BEH C18 1.7um, 2.1x150mm (Waters)
Retention time: 18.966 min
Base peak: 239.0673
Precursor m/z: 183.0564
Precursor type: [M-H]-
Precursor intensity: 18840600.69531
m/z	relative intensity	assigned
167.027	3	C10H3N2O-
168.0348	2	C10H4N2O-
183.0581	999	C11H7N2O-
