Mass spectrum: 4-(3-Phenylpropyl)pyridine; LC-ESI-QFT; MS2; CE: 30; R=17500; [M+H]+
Name: 4-(3-Phenylpropyl)pyridine
Formula: C14H15N
Exact mass: 197.1204
SMILES: C(CC1=CC=CC=C1)CC1=CC=NC=C1
InChI: InChI=1S/C14H15N/c1-2-5-13(6-3-1)7-4-8-14-9-11-15-12-10-14/h1-3,5-6,9-12H,4,7-8H2
Instrument: Q Exactive Orbitrap (Thermo Scientific)
Instrument type: LC-ESI-QFT
Ms type: MS2
Ion mode: POSITIVE
Ionization: ESI
Fragmentation mode: HCD
Collision energy: 30
Resolution: 17500
Column name: Acquity BEH C18 1.7um, 2.1x150mm (Waters)
Retention time: 13.113 min
Base peak: 79.0211
Precursor m/z: 198.1277
Precursor type: [M+H]+
Precursor intensity: 43496150.0625
m/z	relative intensity	assigned
93.0577	2	C6H7N+
106.0647	4	C7H8N+
107.073	1	C7H9N+
120.0808	27	C8H10N+
198.1277	999	C14H16N+
