Mass spectrum: Warfarin; LC-ESI-QFT; MS2; CE: 30; R=17500; [M-H]-
Name: Warfarin
Name: 4-hydroxy-3-(3-oxo-1-phenylbutyl)chromen-2-one
Formula: C19H16O4
Exact mass: 308.1049
SMILES: CC(=O)CC(C1=CC=CC=C1)C1=C(O)C2=CC=CC=C2OC1=O
InChI: InChI=1S/C19H16O4/c1-12(20)11-15(13-7-3-2-4-8-13)17-18(21)14-9-5-6-10-16(14)23-19(17)22/h2-10,15,21H,11H2,1H3
Instrument: Q Exactive Orbitrap (Thermo Scientific)
Instrument type: LC-ESI-QFT
Ms type: MS2
Ion mode: NEGATIVE
Ionization: ESI
Fragmentation mode: HCD
Collision energy: 30
Resolution: 17500
Column name: Acquity BEH C18 1.7um, 2.1x150mm (Waters)
Retention time: 17.453 min
Base peak: 307.0974
Precursor m/z: 307.0976
Precursor type: [M-H]-
Precursor intensity: 95100800.36328
m/z	relative intensity	assigned
57.0346	137	C3H5O-
83.0139	6	C4H3O2-
93.0346	3	C6H5O-
117.0345	18	C8H5O-
133.0658	9	C9H9O-
157.066	5	C11H9O-
161.0244	999	C9H5O3-
187.0764	3	C12H11O2-
221.0609	1	C15H9O2-
221.0972	4	C16H13O-
223.0766	31	C15H11O2-
245.097	1	C18H13O-
247.076	2	C17H11O2-
248.085	1	C17H12O2-
250.0636	515	C16H10O3-
261.0915	2	C18H13O2-
263.1078	7	C18H15O2-
289.087	6	C19H13O3-
307.0976	569	C19H15O4-
