Mass spectrum: 4-Nitrophenol; LC-ESI-QFT; MS2; CE: 45; R=17500; [M+H]+
Name: 4-Nitrophenol
Formula: C6H5NO3
Exact mass: 139.0269
SMILES: OC1=CC=C(C=C1)[N+]([O-])=O
InChI: InChI=1S/C6H5NO3/c8-6-3-1-5(2-4-6)7(9)10/h1-4,8H
Instrument: Q Exactive Orbitrap (Thermo Scientific)
Instrument type: LC-ESI-QFT
Ms type: MS2
Ion mode: POSITIVE
Ionization: ESI
Fragmentation mode: HCD
Collision energy: 45
Resolution: 17500
Column name: Acquity BEH C18 1.7um, 2.1x150mm (Waters)
Retention time: 17.789 min
Base peak: 79.0212
Precursor m/z: 140.0342
Precursor type: [M+H]+
Precursor intensity: 279070.71875
m/z	relative intensity	assigned
112.0159	28	C5H4O3+
112.039	17	C5H6NO2+
140.0343	999	C6H6NO3+
