Mass spectrum: N-Phenyl-1-naphthylamine; LC-ESI-QFT; MS2; CE: 45; R=17500; [M+H]+
Name: N-Phenyl-1-naphthylamine
Name: N-phenylnaphthalen-1-amine
Formula: C16H13N
Exact mass: 219.1048
SMILES: N(C1=CC=CC=C1)C1=C2C=CC=CC2=CC=C1
InChI: InChI=1S/C16H13N/c1-2-9-14(10-3-1)17-16-12-6-8-13-7-4-5-11-15(13)16/h1-12,17H
Instrument: Q Exactive Orbitrap (Thermo Scientific)
Instrument type: LC-ESI-QFT
Ms type: MS2
Ion mode: POSITIVE
Ionization: ESI
Fragmentation mode: HCD
Collision energy: 45
Resolution: 17500
Column name: Acquity BEH C18 1.7um, 2.1x150mm (Waters)
Retention time: 19.137 min
Base peak: 79.0212
Precursor m/z: 220.1121
Precursor type: [M+H]+
Precursor intensity: 6560972.25
m/z	relative intensity	assigned
65.0385	32	C5H5+
91.0542	3	C7H7+
92.0495	617	C6H6N+
93.0573	15	C6H7N+
103.0544	1	C8H7+
104.0495	4	C7H6N+
115.0542	110	C9H7+
117.0698	5	C9H9+
128.062	234	C10H8+
142.0652	235	C10H8N+
143.073	347	C10H9N+
178.0779	5	C14H10+
179.0858	3	C14H11+
191.0731	2	C14H9N+
191.0851	1	C15H11+
192.0807	1	C14H10N+
193.1014	11	C15H13+
202.0776	6	C16H10+
203.0855	43	C16H11+
204.081	21	C15H10N+
204.0932	3	C16H12+
205.0887	93	C15H11N+
217.0894	1	C16H11N+
218.0966	23	C16H12N+
219.1045	28	C16H13N+
220.1121	999	C16H14N+
