Mass spectrum: Warfarin; LC-ESI-QFT; MS2; CE: 90; R=17500; [M+H]+
Name: Warfarin
Name: 4-hydroxy-3-(3-oxo-1-phenylbutyl)chromen-2-one
Formula: C19H16O4
Exact mass: 308.1049
SMILES: CC(=O)CC(C1=CC=CC=C1)C1=C(O)C2=CC=CC=C2OC1=O
InChI: InChI=1S/C19H16O4/c1-12(20)11-15(13-7-3-2-4-8-13)17-18(21)14-9-5-6-10-16(14)23-19(17)22/h2-10,15,21H,11H2,1H3
Instrument: Q Exactive Orbitrap (Thermo Scientific)
Instrument type: LC-ESI-QFT
Ms type: MS2
Ion mode: POSITIVE
Ionization: ESI
Fragmentation mode: HCD
Collision energy: 90
Resolution: 17500
Column name: Acquity BEH C18 1.7um, 2.1x150mm (Waters)
Retention time: 17.457 min
Base peak: 79.0211
Precursor m/z: 309.1121
Precursor type: [M+H]+
Precursor intensity: 17916989.5
m/z	relative intensity	assigned
50.0151	4	C4H2+
51.023	2	C4H3+
53.0022	9	C3HO+
53.0386	87	C4H5+
55.0178	8	C3H3O+
59.049	1	C3H7O+
65.0386	362	C5H5+
68.9971	79	C3HO2+
77.0385	48	C6H5+
79.0542	19	C6H7+
81.0335	11	C5H5O+
89.0386	28	C7H5+
90.0465	1	C7H6+
91.0542	149	C7H7+
93.0335	115	C6H5O+
94.0413	7	C6H6O+
95.0491	374	C6H7O+
98.0362	4	C5H6O2+
101.0384	1	C8H5+
102.0464	23	C8H6+
103.0542	218	C8H7+
105.0337	11	C7H5O+
105.0698	5	C8H9+
107.0492	8	C7H7O+
109.0649	5	C7H9O+
111.0441	106	C6H7O2+
115.0543	22	C9H7+
117.0335	2	C8H5O+
118.0414	2	C8H6O+
119.0492	16	C8H7O+
121.0284	999	C7H5O2+
125.0598	10	C7H9O2+
128.062	51	C10H8+
129.0335	33	C9H5O+
129.0698	48	C10H9+
130.0412	6	C9H6O+
131.0491	39	C9H7O+
139.039	23	C7H7O3+
141.0699	7	C11H9+
145.0283	18	C9H5O2+
145.0648	8	C10H9O+
147.0806	2	C10H11O+
149.023	2	C8H5O3+
152.0621	71	C12H8+
153.0699	60	C12H9+
154.0778	25	C12H10+
155.0855	160	C12H11+
157.0282	9	C10H5O2+
163.0389	132	C9H7O3+
165.0699	86	C13H9+
166.0776	14	C13H10+
167.0855	60	C13H11+
169.0649	8	C12H9O+
175.0391	11	C10H7O3+
176.0621	25	C14H8+
177.0699	22	C14H9+
178.0777	103	C14H10+
179.0849	1	C14H11+
180.0568	1	C13H8O+
181.0646	7	C13H9O+
183.0804	11	C13H11O+
189.0545	1	C11H9O3+
191.0339	75	C10H7O4+
194.0724	4	C14H10O+
195.0803	4	C14H11O+
205.0647	41	C15H9O+
208.052	2	C14H8O2+
223.0753	14	C15H11O2+
233.0596	8	C16H9O2+
234.0668	1	C16H10O2+
249.0548	5	C16H9O3+
251.0702	1	C16H11O3+
