Mass spectrum: Fuberidazole; LC-ESI-QFT; MS2; CE: 90; R=17500; [M+H]+
Name: Fuberidazole
Name: 2-(furan-2-yl)-1H-benzimidazole
Formula: C11H8N2O
Exact mass: 184.0637
SMILES: N1C2=CC=CC=C2N=C1C1=CC=CO1
InChI: InChI=1S/C11H8N2O/c1-2-5-9-8(4-1)12-11(13-9)10-6-3-7-14-10/h1-7H,(H,12,13)
Instrument: Q Exactive Orbitrap (Thermo Scientific)
Instrument type: LC-ESI-QFT
Ms type: MS2
Ion mode: POSITIVE
Ionization: ESI
Fragmentation mode: HCD
Collision energy: 90
Resolution: 17500
Column name: Acquity BEH C18 1.7um, 2.1x150mm (Waters)
Retention time: 11.675 min
Base peak: 79.0211
Precursor m/z: 185.0709
Precursor type: [M+H]+
Precursor intensity: 13259225.875
m/z	relative intensity	assigned
53.0022	2	C3HO+
53.0386	8	C4H5+
54.0338	1	C3H4N+
65.0385	136	C5H5+
67.0178	4	C4H3O+
77.0384	3	C6H5+
78.0338	2	C5H4N+
89.0384	3	C7H5+
90.0338	2	C6H4N+
92.0494	192	C6H6N+
95.0491	22	C6H7O+
97.0075	5	C8H+
103.0416	16	C7H5N+
103.0542	51	C8H7+
104.0494	23	C7H6N+
105.0447	9	C6H5N2+
105.0574	5	C7H7N+
111.0233	1	C9H3+
115.0543	1	C9H7+
116.0493	5	C8H6N+
117.0446	4	C7H5N2+
117.0572	10	C8H7N+
118.0525	59	C7H6N2+
119.0603	62	C7H7N2+
128.0494	18	C9H6N+
129.0447	31	C8H5N2+
129.0572	42	C9H7N+
130.0651	189	C9H8N+
131.0603	66	C8H7N2+
132.0443	1	C8H6NO+
132.0681	2	C8H8N2+
133.0521	1	C8H7NO+
133.076	5	C8H9N2+
140.0494	11	C10H6N+
142.0525	56	C9H6N2+
143.0602	21	C9H7N2+
144.0443	8	C9H6NO+
146.0599	8	C9H8NO+
147.0551	11	C8H7N2O+
155.0604	74	C10H7N2+
156.0681	999	C10H8N2+
157.0759	772	C10H9N2+
161.071	1	C9H9N2O+
184.0631	2	C11H8N2O+
185.0708	82	C11H9N2O+
