Mass spectrum: Warfarin; LC-ESI-QFT; MS2; CE: 90; R=17500; [M-H]-
Name: Warfarin
Name: 4-hydroxy-3-(3-oxo-1-phenylbutyl)chromen-2-one
Formula: C19H16O4
Exact mass: 308.1049
SMILES: CC(=O)CC(C1=CC=CC=C1)C1=C(O)C2=CC=CC=C2OC1=O
InChI: InChI=1S/C19H16O4/c1-12(20)11-15(13-7-3-2-4-8-13)17-18(21)14-9-5-6-10-16(14)23-19(17)22/h2-10,15,21H,11H2,1H3
Instrument: Q Exactive Orbitrap (Thermo Scientific)
Instrument type: LC-ESI-QFT
Ms type: MS2
Ion mode: NEGATIVE
Ionization: ESI
Fragmentation mode: HCD
Collision energy: 90
Resolution: 17500
Column name: Acquity BEH C18 1.7um, 2.1x150mm (Waters)
Retention time: 17.453 min
Base peak: 307.0974
Precursor m/z: 307.0976
Precursor type: [M-H]-
Precursor intensity: 89408695.94727
m/z	relative intensity	assigned
57.0346	844	C3H5O-
65.0397	3	C5H5-
83.0139	13	C4H3O2-
92.0268	4	C6H4O-
93.0346	64	C6H5O-
95.0138	3	C5H3O2-
101.0397	32	C8H5-
108.0217	6	C6H4O2-
115.0555	12	C9H7-
117.0346	999	C8H5O-
119.0502	7	C8H7O-
141.0709	4	C11H9-
143.0502	4	C10H7O-
145.0298	2	C9H5O2-
157.0658	2	C11H9O-
161.0246	36	C9H5O3-
165.0706	2	C13H9-
193.066	20	C14H9O-
195.0815	8	C14H11O-
205.0661	6	C15H9O-
206.0743	2	C15H10O-
219.0819	5	C16H11O-
221.061	5	C15H9O2-
249.0559	7	C16H9O3-
