Mass spectrum: Warfarin; LC-ESI-QFT; MS2; CE: 15; R=17500; [M-H]-
Name: Warfarin
Name: 4-hydroxy-3-(3-oxo-1-phenylbutyl)chromen-2-one
Formula: C19H16O4
Exact mass: 308.1049
SMILES: CC(=O)CC(C1=CC=CC=C1)C1=C(O)C2=CC=CC=C2OC1=O
InChI: InChI=1S/C19H16O4/c1-12(20)11-15(13-7-3-2-4-8-13)17-18(21)14-9-5-6-10-16(14)23-19(17)22/h2-10,15,21H,11H2,1H3
Instrument: Q Exactive Orbitrap (Thermo Scientific)
Instrument type: LC-ESI-QFT
Ms type: MS2
Ion mode: NEGATIVE
Ionization: ESI
Fragmentation mode: HCD
Collision energy: 15
Resolution: 17500
Column name: Acquity BEH C18 1.7um, 2.1x150mm (Waters)
Retention time: 17.453 min
Base peak: 307.0974
Precursor m/z: 307.0976
Precursor type: [M-H]-
Precursor intensity: 88161423.54297
m/z	relative intensity	assigned
57.0344	3	C3H5O-
161.0244	143	C9H5O3-
223.0766	2	C15H11O2-
250.0635	17	C16H10O3-
307.0974	999	C19H15O4-
