Mass spectrum: N-Phenyl-1-naphthylamine; LC-ESI-QFT; MS2; CE: 75; R=17500; [M+H]+
Name: N-Phenyl-1-naphthylamine
Name: N-phenylnaphthalen-1-amine
Formula: C16H13N
Exact mass: 219.1048
SMILES: N(C1=CC=CC=C1)C1=C2C=CC=CC2=CC=C1
InChI: InChI=1S/C16H13N/c1-2-9-14(10-3-1)17-16-12-6-8-13-7-4-5-11-15(13)16/h1-12,17H
Instrument: Q Exactive Orbitrap (Thermo Scientific)
Instrument type: LC-ESI-QFT
Ms type: MS2
Ion mode: POSITIVE
Ionization: ESI
Fragmentation mode: HCD
Collision energy: 75
Resolution: 17500
Column name: Acquity BEH C18 1.7um, 2.1x150mm (Waters)
Retention time: 19.137 min
Base peak: 79.0212
Precursor m/z: 220.1121
Precursor type: [M+H]+
Precursor intensity: 7619661.3125
m/z	relative intensity	assigned
63.0229	1	C5H3+
65.0385	315	C5H5+
66.0463	2	C5H6+
77.0388	1	C6H5+
91.0542	6	C7H7+
92.0494	534	C6H6N+
93.0573	96	C6H7N+
103.0542	3	C8H7+
104.0495	3	C7H6N+
115.0542	460	C9H7+
116.062	28	C9H8+
117.0573	1	C8H7N+
117.0697	7	C9H9+
126.0467	1	C10H6+
127.0539	6	C10H7+
128.062	499	C10H8+
140.0497	1	C10H6N+
142.0652	55	C10H8N+
143.0729	999	C10H9N+
152.0622	1	C12H8+
153.0699	1	C12H9+
165.0698	2	C13H9+
178.0777	14	C14H10+
179.0853	2	C14H11+
191.0857	1	C15H11+
193.0886	2	C14H11N+
193.1014	1	C15H13+
202.0776	54	C16H10+
203.0855	21	C16H11+
204.0809	57	C15H10N+
204.0926	4	C16H12+
205.0885	16	C15H11N+
217.0886	13	C16H11N+
218.0964	34	C16H12N+
219.1043	35	C16H13N+
220.112	20	C16H14N+
