Mass spectrum: Warfarin; LC-ESI-QFT; MS2; CE: 45; R=17500; [M-H]-
Name: Warfarin
Name: 4-hydroxy-3-(3-oxo-1-phenylbutyl)chromen-2-one
Formula: C19H16O4
Exact mass: 308.1049
SMILES: CC(=O)CC(C1=CC=CC=C1)C1=C(O)C2=CC=CC=C2OC1=O
InChI: InChI=1S/C19H16O4/c1-12(20)11-15(13-7-3-2-4-8-13)17-18(21)14-9-5-6-10-16(14)23-19(17)22/h2-10,15,21H,11H2,1H3
Instrument: Q Exactive Orbitrap (Thermo Scientific)
Instrument type: LC-ESI-QFT
Ms type: MS2
Ion mode: NEGATIVE
Ionization: ESI
Fragmentation mode: HCD
Collision energy: 45
Resolution: 17500
Column name: Acquity BEH C18 1.7um, 2.1x150mm (Waters)
Retention time: 17.453 min
Base peak: 307.0974
Precursor m/z: 307.0976
Precursor type: [M-H]-
Precursor intensity: 82707979.23633
m/z	relative intensity	assigned
57.0345	453	C3H5O-
83.0138	15	C4H3O2-
91.0551	1	C7H7-
93.0346	18	C6H5O-
108.0216	2	C6H4O2-
117.0346	231	C8H5O-
119.0502	1	C8H7O-
130.0423	6	C9H6O-
133.0659	16	C9H9O-
135.0452	4	C8H7O2-
143.0504	1	C10H7O-
145.066	2	C10H9O-
157.0658	16	C11H9O-
161.0244	999	C9H5O3-
187.0764	5	C12H11O2-
193.0658	1	C14H9O-
195.0814	8	C14H11O-
205.0656	1	C15H9O-
206.0736	30	C15H10O-
219.0815	4	C16H11O-
221.0608	6	C15H9O2-
221.0971	9	C16H13O-
222.0685	11	C15H10O2-
223.0765	42	C15H11O2-
233.0966	1	C17H13O-
245.0969	2	C18H13O-
247.0762	2	C17H11O2-
248.0844	4	C17H12O2-
249.0559	2	C16H9O3-
250.0635	933	C16H10O3-
261.0917	8	C18H13O2-
263.1085	3	C18H15O2-
289.0875	4	C19H13O3-
307.0974	36	C19H15O4-
