Mass spectrum: N-(2,4-Dimethylphenyl)acetamide; LC-ESI-QFT; MS2; CE: 45; R=17500; [M+H]+
Name: N-(2,4-Dimethylphenyl)acetamide
Formula: C10H13NO
Exact mass: 163.0997
SMILES: CC(=O)NC1=CC=C(C)C=C1C
InChI: InChI=1S/C10H13NO/c1-7-4-5-10(8(2)6-7)11-9(3)12/h4-6H,1-3H3,(H,11,12)
Instrument: Q Exactive Orbitrap (Thermo Scientific)
Instrument type: LC-ESI-QFT
Ms type: MS2
Ion mode: POSITIVE
Ionization: ESI
Fragmentation mode: HCD
Collision energy: 45
Resolution: 17500
Column name: Acquity BEH C18 1.7um, 2.1x150mm (Waters)
Retention time: 14.381 min
Base peak: 79.0211
Precursor m/z: 164.107
Precursor type: [M+H]+
Precursor intensity: 20554652.65625
m/z	relative intensity	assigned
95.0856	1	C7H11+
105.0699	39	C8H9+
106.065	1	C7H8N+
107.073	99	C7H9N+
109.0523	2	C6H7NO+
122.0964	999	C8H12N+
123.0803	34	C8H11O+
131.0732	1	C9H9N+
146.0964	15	C10H12N+
147.0804	1	C10H11O+
164.107	297	C10H14NO+
