Mass spectrum: Procyazine; LC-ESI-QFT; MS2; CE: 30; R=17500; [M-H]-
Name: Procyazine
Name: 2-[[4-chloro-6-(cyclopropylamino)-1,3,5-triazin-2-yl]amino]-2-methylpropanenitrile
Formula: C10H13ClN6
Exact mass: 252.0890
SMILES: CC(C)(NC1=NC(Cl)=NC(NC2CC2)=N1)C#N
InChI: InChI=1S/C10H13ClN6/c1-10(2,5-12)17-9-15-7(11)14-8(16-9)13-6-3-4-6/h6H,3-4H2,1-2H3,(H2,13,14,15,16,17)
Instrument: Q Exactive Orbitrap (Thermo Scientific)
Instrument type: LC-ESI-QFT
Ms type: MS2
Ion mode: NEGATIVE
Ionization: ESI
Fragmentation mode: HCD
Collision energy: 30
Resolution: 17500
Column name: Acquity BEH C18 1.7um, 2.1x150mm (Waters)
Retention time: 15.110 min
Base peak: 112.9857
Precursor m/z: 251.0817
Precursor type: [M-H]-
Precursor intensity: 227056.2202148
m/z	relative intensity	assigned
81.0459	999	C4H5N2-
188.0941	257	C9H10N5-
224.0709	839	C9H11ClN5-
