Mass spectrum: Salicylic acid p-tolyl ester; LC-ESI-QFT; MS2; CE: 45; R=17500; [M+H]+
Name: Salicylic acid p-tolyl ester
Name: p-Tolyl salicylate
Name: (4-methylphenyl) 2-hydroxybenzoate
Formula: C14H12O3
Exact mass: 228.0786
SMILES: CC1=CC=C(OC(=O)C2=C(O)C=CC=C2)C=C1
InChI: InChI=1S/C14H12O3/c1-10-6-8-11(9-7-10)17-14(16)12-4-2-3-5-13(12)15/h2-9,15H,1H3
Instrument: Q Exactive Orbitrap (Thermo Scientific)
Instrument type: LC-ESI-QFT
Ms type: MS2
Ion mode: POSITIVE
Ionization: ESI
Fragmentation mode: HCD
Collision energy: 45
Resolution: 17500
Column name: Acquity BEH C18 1.7um, 2.1x150mm (Waters)
Retention time: 18.510 min
Base peak: 79.0212
Precursor m/z: 229.0859
Precursor type: [M+H]+
Precursor intensity: 901103
m/z	relative intensity	assigned
53.0386	5	C4H5+
77.0383	2	C6H5+
95.0492	31	C6H7O+
105.0335	476	C7H5O+
108.0205	2	C6H4O2+
151.039	999	C8H7O3+
172.0902	12	C12H12O+
229.086	62	C14H13O3+
