Mass spectrum: Warfarin; LC-ESI-QFT; MS2; CE: 75; R=17500; [M+H]+
Name: Warfarin
Name: 4-hydroxy-3-(3-oxo-1-phenylbutyl)chromen-2-one
Formula: C19H16O4
Exact mass: 308.1049
SMILES: CC(=O)CC(C1=CC=CC=C1)C1=C(O)C2=CC=CC=C2OC1=O
InChI: InChI=1S/C19H16O4/c1-12(20)11-15(13-7-3-2-4-8-13)17-18(21)14-9-5-6-10-16(14)23-19(17)22/h2-10,15,21H,11H2,1H3
Instrument: Q Exactive Orbitrap (Thermo Scientific)
Instrument type: LC-ESI-QFT
Ms type: MS2
Ion mode: POSITIVE
Ionization: ESI
Fragmentation mode: HCD
Collision energy: 75
Resolution: 17500
Column name: Acquity BEH C18 1.7um, 2.1x150mm (Waters)
Retention time: 17.456 min
Base peak: 79.0212
Precursor m/z: 309.1121
Precursor type: [M+H]+
Precursor intensity: 15232485.5
m/z	relative intensity	assigned
50.0152	1	C4H2+
51.023	2	C4H3+
53.0022	4	C3HO+
53.0386	56	C4H5+
55.0178	10	C3H3O+
65.0386	118	C5H5+
68.9971	62	C3HO2+
69.0335	3	C4H5O+
77.0385	22	C6H5+
79.0542	11	C6H7+
81.0334	4	C5H5O+
89.0386	15	C7H5+
91.0542	144	C7H7+
93.0335	73	C6H5O+
94.0412	6	C6H6O+
95.0491	353	C6H7O+
98.036	1	C5H6O2+
102.0464	9	C8H6+
103.0542	154	C8H7+
105.0336	20	C7H5O+
105.0699	8	C8H9+
107.0491	11	C7H7O+
109.0648	4	C7H9O+
111.044	61	C6H7O2+
115.0542	11	C9H7+
117.0334	3	C8H5O+
117.07	2	C9H9+
118.0416	2	C8H6O+
119.0492	18	C8H7O+
119.0853	2	C9H11+
121.0284	999	C7H5O2+
125.06	5	C7H9O2+
127.0541	1	C10H7+
128.062	44	C10H8+
129.0335	26	C9H5O+
129.0698	88	C10H9+
130.0414	9	C9H6O+
131.0491	102	C9H7O+
135.045	1	C8H7O2+
139.039	35	C7H7O3+
141.0699	7	C11H9+
143.0855	4	C11H11+
145.0284	28	C9H5O2+
145.065	3	C10H9O+
147.0803	19	C10H11O+
149.0236	1	C8H5O3+
152.062	36	C12H8+
153.0699	46	C12H9+
154.0778	15	C12H10+
155.0855	396	C12H11+
157.0283	15	C10H5O2+
163.0389	514	C9H7O3+
165.0698	82	C13H9+
166.0777	15	C13H10+
167.0855	127	C13H11+
168.0571	3	C12H8O+
169.0647	2	C12H9O+
171.0802	3	C12H11O+
173.0233	5	C10H5O3+
175.039	26	C10H7O3+
176.062	8	C14H8+
177.0698	20	C14H9+
178.0777	101	C14H10+
179.0855	13	C14H11+
181.0647	12	C13H9O+
183.0805	100	C13H11O+
184.051	1	C12H8O2+
189.0545	7	C11H9O3+
191.0339	328	C10H7O4+
194.0725	4	C14H10O+
195.0805	17	C14H11O+
205.0498	5	C11H9O4+
205.0648	62	C15H9O+
206.073	1	C15H10O+
207.0805	1	C15H11O+
208.0516	1	C14H8O2+
209.0595	1	C14H9O2+
223.0753	89	C15H11O2+
233.0596	34	C16H9O2+
234.0676	3	C16H10O2+
249.0547	11	C16H9O3+
251.0702	39	C16H11O3+
