Mass spectrum: Tebufenpyrad; LC-ESI-QFT; MS2; CE: 90; R=17500; [M+H]+
Name: Tebufenpyrad
Name: N-[(4-tert-butylphenyl)methyl]-4-chloro-5-ethyl-2-methylpyrazole-3-carboxamide
Formula: C18H24ClN3O
Exact mass: 333.1608
SMILES: CCC1=NN(C)C(C(=O)NCC2=CC=C(C=C2)C(C)(C)C)=C1Cl
InChI: InChI=1S/C18H24ClN3O/c1-6-14-15(19)16(22(5)21-14)17(23)20-11-12-7-9-13(10-8-12)18(2,3)4/h7-10H,6,11H2,1-5H3,(H,20,23)
Instrument: Q Exactive Orbitrap (Thermo Scientific)
Instrument type: LC-ESI-QFT
Ms type: MS2
Ion mode: POSITIVE
Ionization: ESI
Fragmentation mode: HCD
Collision energy: 90
Resolution: 17500
Column name: Acquity BEH C18 1.7um, 2.1x150mm (Waters)
Retention time: 19.332 min
Base peak: 79.0211
Precursor m/z: 334.1681
Precursor type: [M+H]+
Precursor intensity: 33789501.40625
m/z	relative intensity	assigned
53.0387	1	C4H5+
55.0542	4	C4H7+
59.049	1	C3H7O+
65.0386	1	C5H5+
67.0542	8	C5H7+
69.0698	1	C5H9+
70.0399	999	C2H4N3+
79.0541	3	C6H7+
81.0699	3	C6H9+
89.0386	21	C7H5+
91.0543	1	C7H7+
93.07	1	C7H9+
95.049	1	C6H7O+
95.0855	1	C7H11+
98.9996	8	C5H4Cl+
103.0542	2	C8H7+
115.0542	6	C9H7+
116.062	6	C9H8+
125.0153	151	C7H6Cl+
128.062	7	C10H8+
129.0696	2	C10H9+
130.0777	2	C10H10+
141.0699	4	C11H9+
142.0777	3	C11H10+
145.0649	1	C10H9O+
149.0155	1	C9H6Cl+
151.0308	1	C9H8Cl+
155.0605	1	C10H7N2+
163.0307	1	C10H8Cl+
