Mass spectrum: 4-Nitrophenol; LC-ESI-QFT; MS2; CE: 90; R=17500; [M-H]-
Name: 4-Nitrophenol
Formula: C6H5NO3
Exact mass: 139.0269
SMILES: OC1=CC=C(C=C1)[N+]([O-])=O
InChI: InChI=1S/C6H5NO3/c8-6-3-1-5(2-4-6)7(9)10/h1-4,8H
Instrument: Q Exactive Orbitrap (Thermo Scientific)
Instrument type: LC-ESI-QFT
Ms type: MS2
Ion mode: NEGATIVE
Ionization: ESI
Fragmentation mode: HCD
Collision energy: 90
Resolution: 17500
Column name: Acquity BEH C18 1.7um, 2.1x150mm (Waters)
Retention time: 13.856 min
Base peak: 138.0196
Precursor m/z: 138.0197
Precursor type: [M-H]-
Precursor intensity: 28280306.53418
m/z	relative intensity	assigned
82.006	2	C4H2O2-
91.0191	2	C6H3O-
92.0268	5	C6H4O-
95.0139	33	C5H3O2-
106.0062	1	C6H2O2-
108.0217	999	C6H4O2-
122.0247	2	C6H4NO2-
123.0088	3	C6H3O3-
138.0196	88	C6H4NO3-
