Mass spectrum: N-Phenyl-1-naphthylamine; LC-ESI-QFT; MS2; CE: 90; R=17500; [M+H]+
Name: N-Phenyl-1-naphthylamine
Name: N-phenylnaphthalen-1-amine
Formula: C16H13N
Exact mass: 219.1048
SMILES: N(C1=CC=CC=C1)C1=C2C=CC=CC2=CC=C1
InChI: InChI=1S/C16H13N/c1-2-9-14(10-3-1)17-16-12-6-8-13-7-4-5-11-15(13)16/h1-12,17H
Instrument: Q Exactive Orbitrap (Thermo Scientific)
Instrument type: LC-ESI-QFT
Ms type: MS2
Ion mode: POSITIVE
Ionization: ESI
Fragmentation mode: HCD
Collision energy: 90
Resolution: 17500
Column name: Acquity BEH C18 1.7um, 2.1x150mm (Waters)
Retention time: 19.137 min
Base peak: 79.0212
Precursor m/z: 220.1121
Precursor type: [M+H]+
Precursor intensity: 7273885.9375
m/z	relative intensity	assigned
63.0228	2	C5H3+
65.0385	856	C5H5+
66.0463	10	C5H6+
67.0542	2	C5H7+
91.0542	19	C7H7+
92.0494	541	C6H6N+
93.0573	135	C6H7N+
102.0464	7	C8H6+
103.0542	6	C8H7+
104.0493	4	C7H6N+
115.0542	849	C9H7+
116.062	135	C9H8+
117.057	8	C8H7N+
117.0699	6	C9H9+
126.0465	7	C10H6+
127.0542	17	C10H7+
128.062	930	C10H8+
140.0494	2	C10H6N+
142.0651	39	C10H8N+
143.0729	999	C10H9N+
152.0618	3	C12H8+
153.0695	2	C12H9+
165.07	4	C13H9+
178.0777	21	C14H10+
191.0734	2	C14H9N+
191.0855	4	C15H11+
192.0808	1	C14H10N+
193.0886	4	C14H11N+
202.0777	85	C16H10+
203.0854	12	C16H11+
204.0808	97	C15H10N+
205.0884	5	C15H11N+
217.0885	37	C16H11N+
218.0965	69	C16H12N+
219.1042	27	C16H13N+
220.1118	3	C16H14N+
