Mass spectrum: 4-Nitrobenzoic acid; LC-ESI-QFT; MS2; CE: 60; R=17500; [M-H]-
Name: 4-Nitrobenzoic acid
Formula: C7H5NO4
Exact mass: 167.0219
SMILES: OC(=O)C1=CC=C(C=C1)[N+]([O-])=O
InChI: InChI=1S/C7H5NO4/c9-7(10)5-1-3-6(4-2-5)8(11)12/h1-4H,(H,9,10)
Instrument: Q Exactive Orbitrap (Thermo Scientific)
Instrument type: LC-ESI-QFT
Ms type: MS2
Ion mode: NEGATIVE
Ionization: ESI
Fragmentation mode: HCD
Collision energy: 60
Resolution: 17500
Column name: Acquity BEH C18 1.7um, 2.1x150mm (Waters)
Retention time: 14.695 min
Base peak: 112.9856
Precursor m/z: 166.0146
Precursor type: [M-H]-
Precursor intensity: 5291118.497803
m/z	relative intensity	assigned
92.0268	45	C6H4O-
95.0138	35	C5H3O2-
108.0217	41	C6H4O2-
122.0248	999	C6H4NO2-
123.0089	2	C6H3O3-
138.0196	11	C6H4NO3-
166.0147	35	C7H4NO4-
