Mass spectrum: 4-tert-Butylcatechol; LC-ESI-QFT; MS2; CE: 30; R=17500; [M+H]+
Name: 4-tert-Butylcatechol
Name: 4-tert-butylbenzene-1,2-diol
Formula: C10H14O2
Exact mass: 166.0994
SMILES: CC(C)(C)C1=CC(O)=C(O)C=C1
InChI: InChI=1S/C10H14O2/c1-10(2,3)7-4-5-8(11)9(12)6-7/h4-6,11-12H,1-3H3
Instrument: Q Exactive Orbitrap (Thermo Scientific)
Instrument type: LC-ESI-QFT
Ms type: MS2
Ion mode: POSITIVE
Ionization: ESI
Fragmentation mode: HCD
Collision energy: 30
Resolution: 17500
Column name: Acquity BEH C18 1.7um, 2.1x150mm (Waters)
Retention time: 16.672 min
Base peak: 79.0211
Precursor m/z: 167.1067
Precursor type: [M+H]+
Precursor intensity: 1628154.6875
m/z	relative intensity	assigned
55.0179	3	C3H3O+
55.0542	5	C4H7+
57.0335	1	C3H5O+
65.0386	1	C5H5+
67.0542	22	C5H7+
69.0336	2	C4H5O+
69.0698	6	C5H9+
79.0542	21	C6H7+
81.0699	22	C6H9+
83.0492	11	C5H7O+
91.0543	2	C7H7+
93.0335	4	C6H5O+
93.07	19	C7H9+
95.0492	1	C6H7O+
95.0856	2	C7H11+
97.0285	36	C5H5O2+
97.0648	6	C6H9O+
105.0698	2	C8H9+
107.0493	8	C7H7O+
107.0854	5	C8H11+
110.0368	1	C6H6O2+
111.0441	8	C6H7O2+
121.1011	9	C9H13+
125.059	1	C7H9O2+
125.0958	2	C8H13O+
131.0856	7	C10H11+
139.1117	1	C9H15O+
149.0963	4	C10H13O+
167.1068	999	C10H15O2+
