Mass spectrum: 2-Amino-5-azotoluene; LC-ESI-QFT; MS2; CE: 30; R=17500; [M+H]+
Name: 2-Amino-5-azotoluene
Name: o-Aminoazotoluene
Name: 2-methyl-4-[(2-methylphenyl)diazenyl]aniline
Formula: C14H15N3
Exact mass: 225.1266
SMILES: CC1=C(N)C=CC(=C1)N=NC1=C(C)C=CC=C1
InChI: InChI=1S/C14H15N3/c1-10-5-3-4-6-14(10)17-16-12-7-8-13(15)11(2)9-12/h3-9H,15H2,1-2H3
Instrument: Q Exactive Orbitrap (Thermo Scientific)
Instrument type: LC-ESI-QFT
Ms type: MS2
Ion mode: POSITIVE
Ionization: ESI
Fragmentation mode: HCD
Collision energy: 30
Resolution: 17500
Column name: Acquity BEH C18 1.7um, 2.1x150mm (Waters)
Retention time: 17.696 min
Base peak: 79.0211
Precursor m/z: 226.1339
Precursor type: [M+H]+
Precursor intensity: 57731404.4375
m/z	relative intensity	assigned
58.0651	2	C3H8N+
68.0242	1	C2H2N3+
83.0602	2	C4H7N2+
108.0807	1	C7H10N+
133.0759	1	C8H9N2+
185.1072	1	C12H13N2+
210.1013	1	C13H12N3+
226.1337	999	C14H16N3+
