Mass spectrum: Tebufenpyrad; LC-ESI-QFT; MS2; CE: 60; R=17500; [M+H]+
Name: Tebufenpyrad
Name: N-[(4-tert-butylphenyl)methyl]-4-chloro-5-ethyl-2-methylpyrazole-3-carboxamide
Formula: C18H24ClN3O
Exact mass: 333.1608
SMILES: CCC1=NN(C)C(C(=O)NCC2=CC=C(C=C2)C(C)(C)C)=C1Cl
InChI: InChI=1S/C18H24ClN3O/c1-6-14-15(19)16(22(5)21-14)17(23)20-11-12-7-9-13(10-8-12)18(2,3)4/h7-10H,6,11H2,1-5H3,(H,20,23)
Instrument: Q Exactive Orbitrap (Thermo Scientific)
Instrument type: LC-ESI-QFT
Ms type: MS2
Ion mode: POSITIVE
Ionization: ESI
Fragmentation mode: HCD
Collision energy: 60
Resolution: 17500
Column name: Acquity BEH C18 1.7um, 2.1x150mm (Waters)
Retention time: 19.332 min
Base peak: 79.0211
Precursor m/z: 334.1681
Precursor type: [M+H]+
Precursor intensity: 29678954.39063
m/z	relative intensity	assigned
55.0543	2	C4H7+
59.0491	1	C3H7O+
67.0542	8	C5H7+
69.0698	2	C5H9+
70.0399	999	C2H4N3+
79.0542	2	C6H7+
81.0699	4	C6H9+
89.0383	1	C7H5+
93.07	1	C7H9+
95.0855	3	C7H11+
109.1011	6	C8H13+
115.0543	1	C9H7+
116.062	1	C9H8+
125.0152	114	C7H6Cl+
128.0621	2	C10H8+
130.0775	1	C10H10+
139.0308	2	C8H8Cl+
142.0776	2	C11H10+
149.0153	1	C9H6Cl+
151.0309	5	C9H8Cl+
155.0603	1	C10H7N2+
156.0933	2	C12H12+
163.0308	8	C10H8Cl+
165.0468	1	C10H10Cl+
177.0463	2	C11H10Cl+
191.0622	1	C12H12Cl+
