Mass spectrum: Warfarin; LC-ESI-QFT; MS2; CE: 60; R=17500; [M+H]+
Name: Warfarin
Name: 4-hydroxy-3-(3-oxo-1-phenylbutyl)chromen-2-one
Formula: C19H16O4
Exact mass: 308.1049
SMILES: CC(=O)CC(C1=CC=CC=C1)C1=C(O)C2=CC=CC=C2OC1=O
InChI: InChI=1S/C19H16O4/c1-12(20)11-15(13-7-3-2-4-8-13)17-18(21)14-9-5-6-10-16(14)23-19(17)22/h2-10,15,21H,11H2,1H3
Instrument: Q Exactive Orbitrap (Thermo Scientific)
Instrument type: LC-ESI-QFT
Ms type: MS2
Ion mode: POSITIVE
Ionization: ESI
Fragmentation mode: HCD
Collision energy: 60
Resolution: 17500
Column name: Acquity BEH C18 1.7um, 2.1x150mm (Waters)
Retention time: 17.456 min
Base peak: 79.0212
Precursor m/z: 309.1121
Precursor type: [M+H]+
Precursor intensity: 18221920.5
m/z	relative intensity	assigned
51.0229	2	C4H3+
53.0386	15	C4H5+
55.0178	5	C3H3O+
65.0385	14	C5H5+
68.9971	21	C3HO2+
69.0335	2	C4H5O+
77.0387	8	C6H5+
79.0541	2	C6H7+
89.0386	3	C7H5+
91.0542	65	C7H7+
93.0336	11	C6H5O+
94.0413	1	C6H6O+
95.0491	122	C6H7O+
102.0463	1	C8H6+
103.0542	34	C8H7+
105.0335	11	C7H5O+
105.07	7	C8H9+
107.0491	6	C7H7O+
111.044	13	C6H7O2+
115.0542	2	C9H7+
119.0491	13	C8H7O+
119.0857	2	C9H11+
121.0284	419	C7H5O2+
128.0621	15	C10H8+
129.0335	7	C9H5O+
129.0698	109	C10H9+
130.0412	6	C9H6O+
131.0491	119	C9H7O+
139.039	15	C7H7O3+
141.07	5	C11H9+
143.0854	5	C11H11+
145.0285	9	C9H5O2+
145.0644	1	C10H9O+
147.0804	74	C10H11O+
149.0234	1	C8H5O3+
152.0622	7	C12H8+
153.0698	13	C12H9+
154.0777	1	C12H10+
155.0855	281	C12H11+
157.0284	17	C10H5O2+
163.0389	999	C9H7O3+
165.0698	38	C13H9+
166.0775	1	C13H10+
167.0855	77	C13H11+
171.0802	11	C12H11O+
173.0233	9	C10H5O3+
175.039	31	C10H7O3+
177.0698	7	C14H9+
178.0777	47	C14H10+
179.0856	27	C14H11+
181.0648	6	C13H9O+
183.0805	287	C13H11O+
189.0547	21	C11H9O3+
191.0338	539	C10H7O4+
194.0727	1	C14H10O+
195.0803	25	C14H11O+
205.0497	8	C11H9O4+
205.0648	44	C15H9O+
206.073	2	C15H10O+
207.0806	6	C15H11O+
209.0596	1	C14H9O2+
223.0753	153	C15H11O2+
233.0597	52	C16H9O2+
234.0673	3	C16H10O2+
249.0544	10	C16H9O3+
251.0702	361	C16H11O3+
