Mass spectrum: Warfarin; LC-ESI-QFT; MS2; CE: 30; R=17500; [M+H]+
Name: Warfarin
Name: 4-hydroxy-3-(3-oxo-1-phenylbutyl)chromen-2-one
Formula: C19H16O4
Exact mass: 308.1049
SMILES: CC(=O)CC(C1=CC=CC=C1)C1=C(O)C2=CC=CC=C2OC1=O
InChI: InChI=1S/C19H16O4/c1-12(20)11-15(13-7-3-2-4-8-13)17-18(21)14-9-5-6-10-16(14)23-19(17)22/h2-10,15,21H,11H2,1H3
Instrument: Q Exactive Orbitrap (Thermo Scientific)
Instrument type: LC-ESI-QFT
Ms type: MS2
Ion mode: POSITIVE
Ionization: ESI
Fragmentation mode: HCD
Collision energy: 30
Resolution: 17500
Column name: Acquity BEH C18 1.7um, 2.1x150mm (Waters)
Retention time: 17.457 min
Base peak: 79.0211
Precursor m/z: 309.1121
Precursor type: [M+H]+
Precursor intensity: 14934427
m/z	relative intensity	assigned
68.9971	1	C3HO2+
77.0387	1	C6H5+
91.0541	3	C7H7+
105.0699	1	C8H9+
121.0282	3	C7H5O2+
129.0699	7	C10H9+
131.0491	1	C9H7O+
147.0804	205	C10H11O+
163.0389	999	C9H7O3+
171.0804	9	C12H11O+
175.0395	3	C10H7O3+
183.0801	3	C13H11O+
189.0547	10	C11H9O3+
191.0337	8	C10H7O4+
223.0757	1	C15H11O2+
249.0558	1	C16H9O3+
251.0702	787	C16H11O3+
291.1014	24	C19H15O3+
309.1122	17	C19H17O4+
