Mass spectrum: 2,3,6-Trichlorophenol; LC-ESI-QFT; MS2; CE: 90; R=17500; [M-H]-
Name: 2,3,6-Trichlorophenol
Formula: C6H3Cl3O
Exact mass: 195.9249
SMILES: OC1=C(Cl)C=CC(Cl)=C1Cl
InChI: InChI=1S/C6H3Cl3O/c7-3-1-2-4(8)6(10)5(3)9/h1-2,10H
Instrument: Q Exactive Orbitrap (Thermo Scientific)
Instrument type: LC-ESI-QFT
Ms type: MS2
Ion mode: NEGATIVE
Ionization: ESI
Fragmentation mode: HCD
Collision energy: 90
Resolution: 17500
Column name: Acquity BEH C18 1.7um, 2.1x150mm (Waters)
Retention time: 18.535 min
Base peak: 194.9177
Precursor m/z: 194.9177
Precursor type: [M-H]-
Precursor intensity: 26529705.64844
m/z	relative intensity	assigned
94.9694	727	C5Cl-
122.9644	779	C6ClO-
130.946	35	C5HCl2-
158.9411	999	C6HCl2O-
194.9177	23	C6H2Cl3O-
