Mass spectrum: Salicylic acid p-tolyl ester; LC-ESI-QFT; MS2; CE: 15; R=17500; [M-H]-
Name: Salicylic acid p-tolyl ester
Name: p-Tolyl salicylate
Name: (4-methylphenyl) 2-hydroxybenzoate
Formula: C14H12O3
Exact mass: 228.0786
SMILES: CC1=CC=C(OC(=O)C2=C(O)C=CC=C2)C=C1
InChI: InChI=1S/C14H12O3/c1-10-6-8-11(9-7-10)17-14(16)12-4-2-3-5-13(12)15/h2-9,15H,1H3
Instrument: Q Exactive Orbitrap (Thermo Scientific)
Instrument type: LC-ESI-QFT
Ms type: MS2
Ion mode: NEGATIVE
Ionization: ESI
Fragmentation mode: HCD
Collision energy: 15
Resolution: 17500
Column name: Acquity BEH C18 1.7um, 2.1x150mm (Waters)
Retention time: 17.501 min
Base peak: 227.0713
Precursor m/z: 227.0714
Precursor type: [M-H]-
Precursor intensity: 68501884.34473
m/z	relative intensity	assigned
82.006	2	C4H2O2-
92.0265	36	C6H4O-
95.0139	32	C5H3O2-
106.0061	1	C6H2O2-
108.0217	31	C6H4O2-
123.0088	3	C6H3O3-
136.0166	999	C7H4O3-
183.0815	20	C13H11O-
227.0714	913	C14H11O3-
