Mass spectrum: Fuberidazole; LC-ESI-QFT; MS2; CE: 75; R=17500; [M+H]+
Name: Fuberidazole
Name: 2-(furan-2-yl)-1H-benzimidazole
Formula: C11H8N2O
Exact mass: 184.0637
SMILES: N1C2=CC=CC=C2N=C1C1=CC=CO1
InChI: InChI=1S/C11H8N2O/c1-2-5-9-8(4-1)12-11(13-9)10-6-3-7-14-10/h1-7H,(H,12,13)
Instrument: Q Exactive Orbitrap (Thermo Scientific)
Instrument type: LC-ESI-QFT
Ms type: MS2
Ion mode: POSITIVE
Ionization: ESI
Fragmentation mode: HCD
Collision energy: 75
Resolution: 17500
Column name: Acquity BEH C18 1.7um, 2.1x150mm (Waters)
Retention time: 11.675 min
Base peak: 79.0211
Precursor m/z: 185.0709
Precursor type: [M+H]+
Precursor intensity: 11031746
m/z	relative intensity	assigned
53.0386	1	C4H5+
65.0385	22	C5H5+
67.0178	1	C4H3O+
77.0386	1	C6H5+
92.0494	70	C6H6N+
95.0491	4	C6H7O+
97.0075	2	C8H+
103.0415	1	C7H5N+
103.0542	14	C8H7+
104.0494	4	C7H6N+
105.0448	1	C6H5N2+
105.0574	2	C7H7N+
111.0232	1	C9H3+
116.0495	1	C8H6N+
117.0572	4	C8H7N+
118.0524	12	C7H6N2+
119.0603	19	C7H7N2+
128.0493	5	C9H6N+
129.0447	12	C8H5N2+
129.0572	6	C9H7N+
130.0651	96	C9H8N+
131.0603	22	C8H7N2+
133.076	2	C8H9N2+
140.0494	5	C10H6N+
142.0525	20	C9H6N2+
143.0604	12	C9H7N2+
144.0444	1	C9H6NO+
146.06	4	C9H8NO+
147.0552	5	C8H7N2O+
155.0604	15	C10H7N2+
156.0682	523	C10H8N2+
157.0759	999	C10H9N2+
184.0629	1	C11H8N2O+
185.0708	263	C11H9N2O+
