Mass spectrum: Fuberidazole; LC-ESI-QFT; MS2; CE: 60; R=17500; [M+H]+
Name: Fuberidazole
Name: 2-(furan-2-yl)-1H-benzimidazole
Formula: C11H8N2O
Exact mass: 184.0637
SMILES: N1C2=CC=CC=C2N=C1C1=CC=CO1
InChI: InChI=1S/C11H8N2O/c1-2-5-9-8(4-1)12-11(13-9)10-6-3-7-14-10/h1-7H,(H,12,13)
Instrument: Q Exactive Orbitrap (Thermo Scientific)
Instrument type: LC-ESI-QFT
Ms type: MS2
Ion mode: POSITIVE
Ionization: ESI
Fragmentation mode: HCD
Collision energy: 60
Resolution: 17500
Column name: Acquity BEH C18 1.7um, 2.1x150mm (Waters)
Retention time: 11.675 min
Base peak: 79.0211
Precursor m/z: 185.0709
Precursor type: [M+H]+
Precursor intensity: 13228664.34375
m/z	relative intensity	assigned
65.0384	3	C5H5+
92.0494	20	C6H6N+
103.0542	2	C8H7+
104.0495	1	C7H6N+
117.0574	1	C8H7N+
118.0523	2	C7H6N2+
119.0603	4	C7H7N2+
129.0449	1	C8H5N2+
129.0572	1	C9H7N+
130.0651	32	C9H8N+
131.0603	5	C8H7N2+
133.076	1	C8H9N2+
140.0495	1	C10H6N+
142.0526	6	C9H6N2+
143.0605	5	C9H7N2+
146.0601	1	C9H8NO+
147.0552	1	C8H7N2O+
155.0607	2	C10H7N2+
156.0683	192	C10H8N2+
157.076	999	C10H9N2+
184.0631	1	C11H8N2O+
185.0709	812	C11H9N2O+
