Mass spectrum: Warfarin; LC-ESI-QFT; MS2; CE: 15; R=17500; [M+H]+
Name: Warfarin
Name: 4-hydroxy-3-(3-oxo-1-phenylbutyl)chromen-2-one
Formula: C19H16O4
Exact mass: 308.1049
SMILES: CC(=O)CC(C1=CC=CC=C1)C1=C(O)C2=CC=CC=C2OC1=O
InChI: InChI=1S/C19H16O4/c1-12(20)11-15(13-7-3-2-4-8-13)17-18(21)14-9-5-6-10-16(14)23-19(17)22/h2-10,15,21H,11H2,1H3
Instrument: Q Exactive Orbitrap (Thermo Scientific)
Instrument type: LC-ESI-QFT
Ms type: MS2
Ion mode: POSITIVE
Ionization: ESI
Fragmentation mode: HCD
Collision energy: 15
Resolution: 17500
Column name: Acquity BEH C18 1.7um, 2.1x150mm (Waters)
Retention time: 17.456 min
Base peak: 79.0212
Precursor m/z: 309.1121
Precursor type: [M+H]+
Precursor intensity: 17446141
m/z	relative intensity	assigned
68.9971	1	C3HO2+
121.0287	1	C7H5O2+
147.0805	195	C10H11O+
163.039	999	C9H7O3+
189.055	3	C11H9O3+
205.0499	5	C11H9O4+
251.0703	313	C16H11O3+
291.101	26	C19H15O3+
309.1122	699	C19H17O4+
