Mass spectrum: Warfarin; LC-ESI-QFT; MS2; CE: 45; R=17500; [M+H]+
Name: Warfarin
Name: 4-hydroxy-3-(3-oxo-1-phenylbutyl)chromen-2-one
Formula: C19H16O4
Exact mass: 308.1049
SMILES: CC(=O)CC(C1=CC=CC=C1)C1=C(O)C2=CC=CC=C2OC1=O
InChI: InChI=1S/C19H16O4/c1-12(20)11-15(13-7-3-2-4-8-13)17-18(21)14-9-5-6-10-16(14)23-19(17)22/h2-10,15,21H,11H2,1H3
Instrument: Q Exactive Orbitrap (Thermo Scientific)
Instrument type: LC-ESI-QFT
Ms type: MS2
Ion mode: POSITIVE
Ionization: ESI
Fragmentation mode: HCD
Collision energy: 45
Resolution: 17500
Column name: Acquity BEH C18 1.7um, 2.1x150mm (Waters)
Retention time: 17.457 min
Base peak: 79.0211
Precursor m/z: 309.1121
Precursor type: [M+H]+
Precursor intensity: 15343439.5
m/z	relative intensity	assigned
65.0386	1	C5H5+
68.9972	2	C3HO2+
77.0389	2	C6H5+
91.0543	13	C7H7+
95.0492	7	C6H7O+
103.0543	1	C8H7+
105.0335	2	C7H5O+
105.0699	4	C8H9+
119.049	1	C8H7O+
121.0284	60	C7H5O2+
128.0622	1	C10H8+
129.0699	54	C10H9+
131.0492	40	C9H7O+
143.0857	1	C11H11+
147.0804	154	C10H11O+
155.0856	28	C12H11+
157.0282	4	C10H5O2+
163.039	999	C9H7O3+
165.0695	3	C13H9+
167.0856	12	C13H11+
171.0804	16	C12H11O+
173.0233	4	C10H5O3+
175.0391	16	C10H7O3+
178.0775	5	C14H10+
179.0855	9	C14H11+
181.0648	2	C13H9O+
183.0805	125	C13H11O+
189.0546	16	C11H9O3+
191.0339	220	C10H7O4+
195.0804	10	C14H11O+
205.0495	4	C11H9O4+
205.0649	12	C15H9O+
207.0803	3	C15H11O+
223.0755	41	C15H11O2+
233.0597	19	C16H9O2+
249.055	2	C16H9O3+
251.0703	925	C16H11O3+
291.1012	4	C19H15O3+
