Mass spectrum: 4-tert-Butylcatechol; LC-ESI-QFT; MS2; CE: 90; R=17500; [M+H]+
Name: 4-tert-Butylcatechol
Name: 4-tert-butylbenzene-1,2-diol
Formula: C10H14O2
Exact mass: 166.0994
SMILES: CC(C)(C)C1=CC(O)=C(O)C=C1
InChI: InChI=1S/C10H14O2/c1-10(2,3)7-4-5-8(11)9(12)6-7/h4-6,11-12H,1-3H3
Instrument: Q Exactive Orbitrap (Thermo Scientific)
Instrument type: LC-ESI-QFT
Ms type: MS2
Ion mode: POSITIVE
Ionization: ESI
Fragmentation mode: HCD
Collision energy: 90
Resolution: 17500
Column name: Acquity BEH C18 1.7um, 2.1x150mm (Waters)
Retention time: 16.672 min
Base peak: 79.0211
Precursor m/z: 167.1067
Precursor type: [M+H]+
Precursor intensity: 888119.09375
m/z	relative intensity	assigned
51.023	29	C4H3+
53.0023	88	C3HO+
53.0386	237	C4H5+
55.0179	689	C3H3O+
55.0543	665	C4H7+
57.0336	94	C3H5O+
65.0386	999	C5H5+
67.0542	878	C5H7+
69.0335	736	C4H5O+
69.07	39	C5H9+
79.018	197	C5H3O+
79.0543	715	C6H7+
81.0336	71	C5H5O+
81.0699	170	C6H9+
82.0413	121	C5H6O+
83.0491	403	C5H7O+
91.0542	154	C7H7+
93.0336	112	C6H5O+
93.0701	80	C7H9+
95.0492	341	C6H7O+
97.0285	749	C5H5O2+
107.0492	112	C7H7O+
109.0286	80	C6H5O2+
110.0364	90	C6H6O2+
