Mass spectrum: Dipropyl phthalate; LC-ESI-QFT; MS2; CE: 60; R=17500; [M-H]-
Name: Dipropyl phthalate
Name: dipropyl benzene-1,2-dicarboxylate
Formula: C14H18O4
Exact mass: 250.1205
SMILES: CCCOC(=O)C1=C(C=CC=C1)C(=O)OCCC
InChI: InChI=1S/C14H18O4/c1-3-9-17-13(15)11-7-5-6-8-12(11)14(16)18-10-4-2/h5-8H,3-4,9-10H2,1-2H3
Instrument: Q Exactive Orbitrap (Thermo Scientific)
Instrument type: LC-ESI-QFT
Ms type: MS2
Ion mode: NEGATIVE
Ionization: ESI
Fragmentation mode: HCD
Collision energy: 60
Resolution: 17500
Column name: Acquity BEH C18 1.7um, 2.1x150mm (Waters)
Retention time: 16.901 min
Base peak: 431.1645
Precursor m/z: 249.1132
Precursor type: [M-H]-
Precursor intensity: 3025176.931641
m/z	relative intensity	assigned
59.0138	999	C2H3O2-
97.066	150	C6H9O-
106.0426	24	C7H6O-
119.0506	16	C8H7O-
121.0658	78	C8H9O-
147.0456	21	C9H7O2-
149.0972	470	C10H13O-
161.0974	69	C11H13O-
175.113	32	C12H15O-
177.1289	102	C12H17O-
