Mass spectrum: 2-Methyl-5-nitrobenzenesulfonic acid; LC-ESI-QFT; MS2; CE: 75; R=17500; [M-H]-
Name: 2-Methyl-5-nitrobenzenesulfonic acid
Formula: C7H7NO5S
Exact mass: 217.0045
SMILES: CC1=CC=C(C=C1S(O)(=O)=O)[N+]([O-])=O
InChI: InChI=1S/C7H7NO5S/c1-5-2-3-6(8(9)10)4-7(5)14(11,12)13/h2-4H,1H3,(H,11,12,13)
Instrument: Q Exactive Orbitrap (Thermo Scientific)
Instrument type: LC-ESI-QFT
Ms type: MS2
Ion mode: NEGATIVE
Ionization: ESI
Fragmentation mode: HCD
Collision energy: 75
Resolution: 17500
Column name: Acquity BEH C18 1.7um, 2.1x150mm (Waters)
Retention time: 17.574 min
Base peak: 215.9988
Precursor m/z: 215.9972
Precursor type: [M-H]-
Precursor intensity: 78780331.07812
m/z	relative intensity	assigned
55.0189	6	C3H3O-
87.0113	3	C6HN-
88.0193	68	C6H2N-
124.98	22	CH3NO4S-
159.9727	999	C4H2NO4S-
160.9567	24	C4HO5S-
185.9516	4	C5NO5S-
199.9672	9	C6H2NO5S-
215.9988	14	C7H6NO5S-
