Mass spectrum: Sulfamethazine; LC-ESI-QFT; MS2; CE: 90; R=17500; [M+H]+
Name: Sulfamethazine
Name: 4-amino-N-(4,6-dimethylpyrimidin-2-yl)benzenesulfonamide
Formula: C12H14N4O2S
Exact mass: 278.0837
SMILES: CC1=CC(C)=NC(NS(=O)(=O)C2=CC=C(N)C=C2)=N1
InChI: InChI=1S/C12H14N4O2S/c1-8-7-9(2)15-12(14-8)16-19(17,18)11-5-3-10(13)4-6-11/h3-7H,13H2,1-2H3,(H,14,15,16)
Instrument: Q Exactive Orbitrap (Thermo Scientific)
Instrument type: LC-ESI-QFT
Ms type: MS2
Ion mode: POSITIVE
Ionization: ESI
Fragmentation mode: HCD
Collision energy: 90
Resolution: 17500
Column name: Acquity BEH C18 1.7um, 2.1x150mm (Waters)
Retention time: 16.910 min
Base peak: 79.0211
Precursor m/z: 279.091
Precursor type: [M+H]+
Precursor intensity: 38411538
m/z	relative intensity	assigned
50.0152	3	C4H2+
51.0229	10	C4H3+
53.0386	350	C4H5+
55.0178	21	C3H3O+
65.0022	2	C4HO+
67.0542	4	C5H7+
68.997	2	C3HO2+
77.0385	258	C6H5+
78.0464	3	C6H6+
79.0542	6	C6H7+
81.0335	33	C5H5O+
81.0699	4	C6H9+
91.0542	22	C7H7+
94.0413	40	C6H6O+
95.0045	449	CH5NO2S+
95.0491	999	C6H7O+
97.0201	3	CH7NO2S+
97.0536	1	H9N4S+
98.0362	1	C5H6O2+
105.0447	411	C6H5N2+
106.0417	3	C7H6O+
107.0044	19	C2H5NO2S+
108.0122	6	C2H6NO2S+
109.0202	3	C2H7NO2S+
109.0648	10	C7H9O+
113.015	28	C7HN2+
115.0542	27	C9H7+
116.0622	4	C9H8+
121.0648	1	C8H9O+
122.9994	45	C5H3N2S+
124.0075	1	C5H4N2S+
125.015	33	C8HN2+
127.0309	5	C5H7N2S+
128.062	244	C10H8+
129.0698	184	C10H9+
133.0201	163	C4H7NO2S+
141.01	84	C8HN2O+
141.0698	62	C11H9+
142.0778	3	C11H10+
145.0201	15	C5H7NO2S+
145.0651	3	C10H9O+
147.0357	44	C5H9NO2S+
152.062	31	C12H8+
153.0698	91	C12H9+
154.0777	164	C12H10+
155.0257	11	C6H7N2OS+
155.0854	5	C12H11+
157.02	8	C6H7NO2S+
159.036	6	C6H9NO2S+
165.0463	1	C11H5N2+
168.0572	2	C12H8O+
170.028	33	C7H8NO2S+
171.0358	369	C7H9NO2S+
172.0439	3	C7H10NO2S+
173.0514	353	C7H11NO2S+
183.0358	240	C8H9NO2S+
186.023	4	C10H6N2S+
199.0306	12	C11H7N2S+
201.0463	100	C11H9N2S+
217.0416	4	C11H9N2OS+
219.0569	308	C11H11N2OS+
221.0963	1	C11H15N3S+
233.0725	24	C12H13N2OS+
