Mass spectrum: Propoxycarbazone; LC-ESI-QFT; MS2; CE: 30; R=17500; [M-H]-
Name: Propoxycarbazone
Name: methyl 2-[(4-methyl-5-oxo-3-propoxy-1,2,4-triazole-1-carbonyl)sulfamoyl]benzoate
Formula: C15H18N4O7S
Exact mass: 398.0896
SMILES: CCCOC1=NN(C(=O)NS(=O)(=O)C2=C(C=CC=C2)C(=O)OC)C(=O)N1C
InChI: InChI=1S/C15H18N4O7S/c1-4-9-26-14-16-19(15(22)18(14)2)13(21)17-27(23,24)11-8-6-5-7-10(11)12(20)25-3/h5-8H,4,9H2,1-3H3,(H,17,21)
Instrument: Q Exactive Orbitrap (Thermo Scientific)
Instrument type: LC-ESI-QFT
Ms type: MS2
Ion mode: NEGATIVE
Ionization: ESI
Fragmentation mode: HCD
Collision energy: 30
Resolution: 17500
Column name: Acquity BEH C18 1.7um, 2.1x150mm (Waters)
Retention time: 15.537 min
Base peak: 99.9976
Precursor m/z: 397.0823
Precursor type: [M-H]-
Precursor intensity: 8144480.935547
m/z	relative intensity	assigned
113.0231	999	C3H3N3O2-
114.0308	5	C3H4N3O2-
156.0779	132	C6H10N3O2-
189.9466	1	C4NO6S-
353.0482	2	C14H13N2O7S-
