Mass spectrum: 2,3,4-Trihydroxbenzophenone; LC-ESI-QFT; MS2; CE: 30; R=17500; [M-H]-
Name: 2,3,4-Trihydroxbenzophenone
Name: 2,3,4-Trihydroxybenzophenone
Name: phenyl-(2,3,4-trihydroxyphenyl)methanone
Formula: C13H10O4
Exact mass: 230.0579
SMILES: OC1=CC=C(C(=O)C2=CC=CC=C2)C(O)=C1O
InChI: InChI=1S/C13H10O4/c14-10-7-6-9(12(16)13(10)17)11(15)8-4-2-1-3-5-8/h1-7,14,16-17H
Instrument: Q Exactive Orbitrap (Thermo Scientific)
Instrument type: LC-ESI-QFT
Ms type: MS2
Ion mode: NEGATIVE
Ionization: ESI
Fragmentation mode: HCD
Collision energy: 30
Resolution: 17500
Column name: Acquity BEH C18 1.7um, 2.1x150mm (Waters)
Retention time: 15.346 min
Base peak: 229.0505
Precursor m/z: 229.0506
Precursor type: [M-H]-
Precursor intensity: 39164309.40918
m/z	relative intensity	assigned
65.0032	1	C4HO-
91.0189	130	C6H3O-
93.0346	472	C6H5O-
109.0295	41	C6H5O2-
117.0346	2	C8H5O-
135.0088	948	C7H3O3-
143.0504	1	C10H7O-
153.0193	259	C7H5O4-
157.0657	1	C11H9O-
184.0532	1	C12H8O2-
185.0607	39	C12H9O2-
187.04	1	C11H7O3-
229.0505	999	C13H9O4-
