Mass spectrum: N,N`-Dibutylthiourea; LC-ESI-QFT; MS2; CE: 30; R=17500; [M-H]-
Name: N,N'-Dibutylthiourea
Name: N,N'-dibutylcarbamimidothioic acid
Formula: C9H20N2S
Exact mass: 188.1347
SMILES: CCCCNC(=S)NCCCC
InChI: InChI=1S/C9H20N2S/c1-3-5-7-10-9(12)11-8-6-4-2/h3-8H2,1-2H3,(H2,10,11,12)
Instrument: Q Exactive Orbitrap (Thermo Scientific)
Instrument type: LC-ESI-QFT
Ms type: MS2
Ion mode: NEGATIVE
Ionization: ESI
Fragmentation mode: HCD
Collision energy: 30
Resolution: 17500
Column name: Acquity BEH C18 1.7um, 2.1x150mm (Waters)
Retention time: 16.316 min
Base peak: 112.9856
Precursor m/z: 187.1274
Precursor type: [M-H]-
Precursor intensity: 644793.059082
m/z	relative intensity	assigned
187.1266	999	C9H19N2S-
