Mass spectrum: Sulfamethazine; LC-ESI-QFT; MS2; CE: 45; R=17500; [M+H]+
Name: Sulfamethazine
Name: 4-amino-N-(4,6-dimethylpyrimidin-2-yl)benzenesulfonamide
Formula: C12H14N4O2S
Exact mass: 278.0837
SMILES: CC1=CC(C)=NC(NS(=O)(=O)C2=CC=C(N)C=C2)=N1
InChI: InChI=1S/C12H14N4O2S/c1-8-7-9(2)15-12(14-8)16-19(17,18)11-5-3-10(13)4-6-11/h3-7H,13H2,1-2H3,(H,14,15,16)
Instrument: Q Exactive Orbitrap (Thermo Scientific)
Instrument type: LC-ESI-QFT
Ms type: MS2
Ion mode: POSITIVE
Ionization: ESI
Fragmentation mode: HCD
Collision energy: 45
Resolution: 17500
Column name: Acquity BEH C18 1.7um, 2.1x150mm (Waters)
Retention time: 16.910 min
Base peak: 79.0211
Precursor m/z: 279.091
Precursor type: [M+H]+
Precursor intensity: 41797922
m/z	relative intensity	assigned
77.0388	4	C6H5+
95.0046	1	CH5NO2S+
95.0491	1	C6H7O+
129.0697	1	C10H9+
141.0096	3	C8HN2O+
161.0957	1	C11H13O+
171.0357	2	C7H9NO2S+
173.0514	25	C7H11NO2S+
183.0358	3	C8H9NO2S+
185.0515	1	C8H11NO2S+
199.0312	1	C11H7N2S+
201.0463	404	C11H9N2S+
202.0553	1	C11H10N2S+
219.0568	999	C11H11N2OS+
221.0613	2	C10H11N3OS+
233.0725	75	C12H13N2OS+
278.0856	1	C12H14N4O2S+
279.0933	940	C12H15N4O2S+
