Mass spectrum: 4-Nitroaniline; LC-ESI-QFT; MS2; CE: 15; R=17500; [M-H]-
Name: 4-Nitroaniline
Formula: C6H6N2O2
Exact mass: 138.0429
SMILES: NC1=CC=C(C=C1)[N+]([O-])=O
InChI: InChI=1S/C6H6N2O2/c7-5-1-3-6(4-2-5)8(9)10/h1-4H,7H2
Instrument: Q Exactive Orbitrap (Thermo Scientific)
Instrument type: LC-ESI-QFT
Ms type: MS2
Ion mode: NEGATIVE
Ionization: ESI
Fragmentation mode: HCD
Collision energy: 15
Resolution: 17500
Column name: Acquity BEH C18 1.7um, 2.1x150mm (Waters)
Retention time: 11.626 min
Base peak: 271.0836
Precursor m/z: 137.0357
Precursor type: [M-H]-
Precursor intensity: 1601561.200684
m/z	relative intensity	assigned
93.0345	5	C6H5O-
107.0376	289	C6H5NO-
108.0217	8	C6H4O2-
109.0294	14	C6H5O2-
137.0356	999	C6H5N2O2-
