Mass spectrum: N-(3-Aminophenyl)propanamide; LC-ESI-QFT; MS2; CE: 75; R=17500; [M+H]+
Name: N-(3-Aminophenyl)propanamide
Formula: C9H12N2O
Exact mass: 164.0950
SMILES: CCC(=O)NC1=CC(N)=CC=C1
InChI: InChI=1S/C9H12N2O/c1-2-9(12)11-8-5-3-4-7(10)6-8/h3-6H,2,10H2,1H3,(H,11,12)
Instrument: Q Exactive Orbitrap (Thermo Scientific)
Instrument type: LC-ESI-QFT
Ms type: MS2
Ion mode: POSITIVE
Ionization: ESI
Fragmentation mode: HCD
Collision energy: 75
Resolution: 17500
Column name: Acquity BEH C18 1.7um, 2.1x150mm (Waters)
Retention time: 12.657 min
Base peak: 79.0211
Precursor m/z: 165.1022
Precursor type: [M+H]+
Precursor intensity: 14945012.28125
m/z	relative intensity	assigned
53.0386	9	C4H5+
56.0131	9	C2H2NO+
65.0385	3	C5H5+
72.0443	999	C3H6NO+
77.0385	2	C6H5+
92.0495	49	C6H6N+
94.065	1	C6H8N+
95.0491	24	C6H7O+
105.0448	11	C6H5N2+
120.0444	17	C7H6NO+
165.1021	1	C9H13N2O+
