Mass spectrum: Arbutin; LC-ESI-QFT; MS2; CE: 45; R=17500; [M-H]-
Name: Arbutin
Name: (2R,3S,4S,5R,6S)-2-(hydroxymethyl)-6-(4-hydroxyphenoxy)oxane-3,4,5-triol
Formula: C12H16O7
Exact mass: 272.0896
SMILES: OC[C@H]1O[C@@H](OC2=CC=C(O)C=C2)[C@H](O)[C@@H](O)[C@@H]1O
InChI: InChI=1S/C12H16O7/c13-5-8-9(15)10(16)11(17)12(19-8)18-7-3-1-6(14)2-4-7/h1-4,8-17H,5H2/t8-,9-,10+,11-,12-/m1/s1
Instrument: Q Exactive Orbitrap (Thermo Scientific)
Instrument type: LC-ESI-QFT
Ms type: MS2
Ion mode: NEGATIVE
Ionization: ESI
Fragmentation mode: HCD
Collision energy: 45
Resolution: 17500
Column name: Acquity BEH C18 1.7um, 2.1x150mm (Waters)
Retention time: 2.973 min
Base peak: 75.0088
Precursor m/z: 271.0823
Precursor type: [M-H]-
Precursor intensity: 618575.802002
m/z	relative intensity	assigned
59.0138	5	C2H3O2-
71.0138	42	C3H3O2-
73.0295	15	C3H5O2-
83.0139	9	C4H3O2-
85.0296	33	C4H5O2-
95.0138	5	C5H3O2-
101.0243	9	C4H5O3-
108.0217	999	C6H4O2-
109.0295	78	C6H5O2-
113.0244	7	C5H5O3-
121.0295	7	C7H5O2-
123.0451	15	C7H7O2-
133.0296	14	C8H5O2-
135.0452	9	C8H7O2-
151.0401	5	C8H7O3-
163.0407	6	C9H7O3-
