Mass spectrum: 4-Chloroaniline; LC-ESI-QFT; MS2; CE: 60; R=17500; [M-H]-
Name: 4-Chloroaniline
Formula: C6H6ClN
Exact mass: 127.0189
SMILES: NC1=CC=C(Cl)C=C1
InChI: InChI=1S/C6H6ClN/c7-5-1-3-6(8)4-2-5/h1-4H,8H2
Instrument: Q Exactive Orbitrap (Thermo Scientific)
Instrument type: LC-ESI-QFT
Ms type: MS2
Ion mode: NEGATIVE
Ionization: ESI
Fragmentation mode: HCD
Collision energy: 60
Resolution: 17500
Column name: Acquity BEH C18 1.7um, 2.1x150mm (Waters)
Retention time: 14.489 min
Base peak: 169.0174
Precursor m/z: 126.0116
Precursor type: [M-H]-
Precursor intensity: 1568064.526367
m/z	relative intensity	assigned
126.0116	999	C6H5ClN-
