Mass spectrum: 2,4-Dihydroxybenzophenone; LC-ESI-QFT; MS2; CE: 45; R=17500; [M-H]-
Name: 2,4-Dihydroxybenzophenone
Name: (2,4-dihydroxyphenyl)-phenylmethanone
Formula: C13H10O3
Exact mass: 214.0630
SMILES: OC1=CC=C(C(=O)C2=CC=CC=C2)C(O)=C1
InChI: InChI=1S/C13H10O3/c14-10-6-7-11(12(15)8-10)13(16)9-4-2-1-3-5-9/h1-8,14-15H
Instrument: Q Exactive Orbitrap (Thermo Scientific)
Instrument type: LC-ESI-QFT
Ms type: MS2
Ion mode: NEGATIVE
Ionization: ESI
Fragmentation mode: HCD
Collision energy: 45
Resolution: 17500
Column name: Acquity BEH C18 1.7um, 2.1x150mm (Waters)
Retention time: 17.076 min
Base peak: 213.0557
Precursor m/z: 213.0557
Precursor type: [M-H]-
Precursor intensity: 139107935.873
m/z	relative intensity	assigned
65.0033	1	C4HO-
65.0397	1	C5H5-
67.019	1	C4H3O-
91.019	312	C6H3O-
93.0346	999	C6H5O-
119.0502	2	C8H7O-
121.0295	10	C7H5O2-
130.0422	1	C9H6O-
135.0088	538	C7H3O3-
141.071	8	C11H9-
143.0502	9	C10H7O-
145.0295	1	C9H5O2-
154.0427	3	C11H6O-
167.0505	2	C12H7O-
169.0659	247	C12H9O-
171.0451	12	C11H7O2-
213.0557	439	C13H9O3-
