Mass spectrum: Dulcin; LC-ESI-QFT; MS2; CE: 45; R=17500; [M+H]+
Name: Dulcin
Name: (4-ethoxyphenyl)urea
Formula: C9H12N2O2
Exact mass: 180.0899
SMILES: CCOC1=CC=C(NC(N)=O)C=C1
InChI: InChI=1S/C9H12N2O2/c1-2-13-8-5-3-7(4-6-8)11-9(10)12/h3-6H,2H2,1H3,(H3,10,11,12)
Instrument: Q Exactive Orbitrap (Thermo Scientific)
Instrument type: LC-ESI-QFT
Ms type: MS2
Ion mode: POSITIVE
Ionization: ESI
Fragmentation mode: HCD
Collision energy: 45
Resolution: 17500
Column name: Acquity BEH C18 1.7um, 2.1x150mm (Waters)
Retention time: 13.181 min
Base peak: 79.0211
Precursor m/z: 181.0972
Precursor type: [M+H]+
Precursor intensity: 8032949.5
m/z	relative intensity	assigned
65.0385	13	C5H5+
81.0334	3	C5H5O+
82.0651	12	C5H8N+
92.0495	33	C6H6N+
93.0336	16	C6H5O+
93.0573	26	C6H7N+
94.0651	4	C6H8N+
108.0444	621	C6H6NO+
109.0522	31	C6H7NO+
110.06	726	C6H8NO+
111.044	43	C6H7O2+
121.0284	3	C7H5O2+
125.0598	2	C7H9O2+
135.0447	1	C8H7O2+
136.0757	999	C8H10NO+
137.0835	11	C8H11NO+
138.0913	788	C8H12NO+
139.0752	1	C8H11O2+
139.0864	1	C7H11N2O+
153.0658	4	C7H9N2O2+
164.0705	41	C9H10NO2+
181.0971	296	C9H13N2O2+
