Mass spectrum: 2,3,4-Trihydroxbenzophenone; LC-ESI-QFT; MS2; CE: 90; R=17500; [M-H]-
Name: 2,3,4-Trihydroxbenzophenone
Name: 2,3,4-Trihydroxybenzophenone
Name: phenyl-(2,3,4-trihydroxyphenyl)methanone
Formula: C13H10O4
Exact mass: 230.0579
SMILES: OC1=CC=C(C(=O)C2=CC=CC=C2)C(O)=C1O
InChI: InChI=1S/C13H10O4/c14-10-7-6-9(12(16)13(10)17)11(15)8-4-2-1-3-5-8/h1-7,14,16-17H
Instrument: Q Exactive Orbitrap (Thermo Scientific)
Instrument type: LC-ESI-QFT
Ms type: MS2
Ion mode: NEGATIVE
Ionization: ESI
Fragmentation mode: HCD
Collision energy: 90
Resolution: 17500
Column name: Acquity BEH C18 1.7um, 2.1x150mm (Waters)
Retention time: 15.346 min
Base peak: 229.0505
Precursor m/z: 229.0506
Precursor type: [M-H]-
Precursor intensity: 35348703.43066
m/z	relative intensity	assigned
63.024	10	C5H3-
65.0033	123	C4HO-
65.0397	33	C5H5-
67.0189	13	C4H3O-
69.0346	1	C4H5O-
75.0239	1	C6H3-
79.0189	2	C5H3O-
89.0398	3	C7H5-
91.019	599	C6H3O-
93.0346	999	C6H5O-
97.0296	1	C5H5O2-
107.0138	10	C6H3O2-
108.0216	1	C6H4O2-
109.0295	3	C6H5O2-
115.0553	1	C9H7-
117.0346	42	C8H5O-
135.0088	20	C7H3O3-
141.0347	1	C10H5O-
143.0502	7	C10H7O-
145.0297	4	C9H5O2-
153.0194	3	C7H5O4-
156.0581	2	C11H8O-
158.0373	1	C10H6O2-
159.0449	1	C10H7O2-
183.0451	2	C12H7O2-
184.0532	1	C12H8O2-
