Mass spectrum: Benzimidazole; LC-ESI-QFT; MS2; CE: 15; R=17500; [M-H]-
Name: Benzimidazole
Name: 1H-benzimidazole
Formula: C7H6N2
Exact mass: 118.0531
SMILES: N1C=NC2=C1C=CC=C2
InChI: InChI=1S/C7H6N2/c1-2-4-7-6(3-1)8-5-9-7/h1-5H,(H,8,9)
Instrument: Q Exactive Orbitrap (Thermo Scientific)
Instrument type: LC-ESI-QFT
Ms type: MS2
Ion mode: NEGATIVE
Ionization: ESI
Fragmentation mode: HCD
Collision energy: 15
Resolution: 17500
Column name: Acquity BEH C18 1.7um, 2.1x150mm (Waters)
Retention time: 14.264 min
Base peak: 112.9856
Precursor m/z: 117.0458
Precursor type: [M-H]-
Precursor intensity: 9797544.692871
m/z	relative intensity	assigned
66.0349	1	C4H4N-
90.035	6	C6H4N-
117.0457	999	C7H5N2-
