Mass spectrum: Aldoxycarb; LC-ESI-QFT; MS2; CE: 30; R=17500; [M+H]+
Name: Aldoxycarb
Name: [(E)-(2-methyl-2-methylsulfonylpropylidene)amino] N-methylcarbamate
Formula: C7H14N2O4S
Exact mass: 222.0674
SMILES: CNC(=O)O\N=C\C(C)(C)S(C)(=O)=O
InChI: InChI=1S/C7H14N2O4S/c1-7(2,14(4,11)12)5-9-13-6(10)8-3/h5H,1-4H3,(H,8,10)/b9-5+
Instrument: Q Exactive Orbitrap (Thermo Scientific)
Instrument type: LC-ESI-QFT
Ms type: MS2
Ion mode: POSITIVE
Ionization: ESI
Fragmentation mode: HCD
Collision energy: 30
Resolution: 17500
Column name: Acquity BEH C18 1.7um, 2.1x150mm (Waters)
Retention time: 17.855 min
Base peak: 79.0211
Precursor m/z: 223.0747
Precursor type: [M+H]+
Precursor intensity: 29601829.23437
m/z	relative intensity	assigned
77.0389	1	C6H5+
223.0752	999	C7H15N2O4S+
