Mass spectrum: Benzimidazole; LC-ESI-QFT; MS2; CE: 75; R=17500; [M+H]+
Name: Benzimidazole
Name: 1H-benzimidazole
Formula: C7H6N2
Exact mass: 118.0531
SMILES: N1C=NC2=C1C=CC=C2
InChI: InChI=1S/C7H6N2/c1-2-4-7-6(3-1)8-5-9-7/h1-5H,(H,8,9)
Instrument: Q Exactive Orbitrap (Thermo Scientific)
Instrument type: LC-ESI-QFT
Ms type: MS2
Ion mode: POSITIVE
Ionization: ESI
Fragmentation mode: HCD
Collision energy: 75
Resolution: 17500
Column name: Acquity BEH C18 1.7um, 2.1x150mm (Waters)
Retention time: 4.419 min
Base peak: 79.0211
Precursor m/z: 119.0604
Precursor type: [M+H]+
Precursor intensity: 27258468.90625
m/z	relative intensity	assigned
65.0386	36	C5H5+
91.0541	1	C7H7+
92.0495	136	C6H6N+
118.0522	1	C7H6N2+
119.0604	999	C7H7N2+
