Mass spectrum: Sulfamethazine; LC-ESI-QFT; MS2; CE: 30; R=17500; [M+H]+
Name: Sulfamethazine
Name: 4-amino-N-(4,6-dimethylpyrimidin-2-yl)benzenesulfonamide
Formula: C12H14N4O2S
Exact mass: 278.0837
SMILES: CC1=CC(C)=NC(NS(=O)(=O)C2=CC=C(N)C=C2)=N1
InChI: InChI=1S/C12H14N4O2S/c1-8-7-9(2)15-12(14-8)16-19(17,18)11-5-3-10(13)4-6-11/h3-7H,13H2,1-2H3,(H,14,15,16)
Instrument: Q Exactive Orbitrap (Thermo Scientific)
Instrument type: LC-ESI-QFT
Ms type: MS2
Ion mode: POSITIVE
Ionization: ESI
Fragmentation mode: HCD
Collision energy: 30
Resolution: 17500
Column name: Acquity BEH C18 1.7um, 2.1x150mm (Waters)
Retention time: 16.910 min
Base peak: 79.0211
Precursor m/z: 279.091
Precursor type: [M+H]+
Precursor intensity: 39270684.09375
m/z	relative intensity	assigned
201.0464	21	C11H9N2S+
202.0539	1	C11H10N2S+
219.0569	56	C11H11N2OS+
233.0726	3	C12H13N2OS+
278.0854	1	C12H14N4O2S+
279.0933	999	C12H15N4O2S+
