Mass spectrum: Dulcin; LC-ESI-QFT; MS2; CE: 90; R=17500; [M+H]+
Name: Dulcin
Name: (4-ethoxyphenyl)urea
Formula: C9H12N2O2
Exact mass: 180.0899
SMILES: CCOC1=CC=C(NC(N)=O)C=C1
InChI: InChI=1S/C9H12N2O2/c1-2-13-8-5-3-7(4-6-8)11-9(10)12/h3-6H,2H2,1H3,(H3,10,11,12)
Instrument: Q Exactive Orbitrap (Thermo Scientific)
Instrument type: LC-ESI-QFT
Ms type: MS2
Ion mode: POSITIVE
Ionization: ESI
Fragmentation mode: HCD
Collision energy: 90
Resolution: 17500
Column name: Acquity BEH C18 1.7um, 2.1x150mm (Waters)
Retention time: 13.181 min
Base peak: 79.0211
Precursor m/z: 181.0972
Precursor type: [M+H]+
Precursor intensity: 8883535.71875
m/z	relative intensity	assigned
53.0022	3	C3HO+
53.0386	14	C4H5+
55.0179	3	C3H3O+
55.0543	6	C4H7+
65.0386	579	C5H5+
67.0416	18	C4H5N+
67.0542	11	C5H7+
68.0131	16	C3H2NO+
68.0494	1	C4H6N+
69.0336	1	C4H5O+
79.054	1	C6H7+
80.0495	60	C5H6N+
81.0335	273	C5H5O+
81.0573	18	C5H7N+
82.0651	65	C5H8N+
83.0491	6	C5H7O+
90.034	6	C6H4N+
91.0542	6	C7H7+
92.0495	155	C6H6N+
93.0335	78	C6H5O+
93.0573	91	C6H7N+
94.065	3	C6H8N+
95.0491	11	C6H7O+
97.0076	2	C8H+
105.0448	5	C6H5N2+
108.0444	999	C6H6NO+
109.0523	79	C6H7NO+
110.0601	308	C6H8NO+
111.0441	232	C6H7O2+
121.0288	2	C7H5O2+
121.0397	26	C6H5N2O+
124.0756	2	C7H10NO+
125.0597	11	C7H9O2+
136.0392	2	C7H6NO2+
136.0758	14	C8H10NO+
137.0835	2	C8H11NO+
138.0914	10	C8H12NO+
139.0744	1	C8H11O2+
146.035	2	C9H6O2+
