Mass spectrum: Sulfamethazine; LC-ESI-QFT; MS2; CE: 60; R=17500; [M+H]+
Name: Sulfamethazine
Name: 4-amino-N-(4,6-dimethylpyrimidin-2-yl)benzenesulfonamide
Formula: C12H14N4O2S
Exact mass: 278.0837
SMILES: CC1=CC(C)=NC(NS(=O)(=O)C2=CC=C(N)C=C2)=N1
InChI: InChI=1S/C12H14N4O2S/c1-8-7-9(2)15-12(14-8)16-19(17,18)11-5-3-10(13)4-6-11/h3-7H,13H2,1-2H3,(H,14,15,16)
Instrument: Q Exactive Orbitrap (Thermo Scientific)
Instrument type: LC-ESI-QFT
Ms type: MS2
Ion mode: POSITIVE
Ionization: ESI
Fragmentation mode: HCD
Collision energy: 60
Resolution: 17500
Column name: Acquity BEH C18 1.7um, 2.1x150mm (Waters)
Retention time: 16.910 min
Base peak: 79.0211
Precursor m/z: 279.091
Precursor type: [M+H]+
Precursor intensity: 42073226.65625
m/z	relative intensity	assigned
53.0386	11	C4H5+
77.0387	8	C6H5+
81.0334	1	C5H5O+
91.0542	2	C7H7+
94.0414	1	C6H6O+
95.0045	20	CH5NO2S+
95.0491	36	C6H7O+
105.0336	2	C7H5O+
105.0447	15	C6H5N2+
107.0046	1	C2H5NO2S+
115.0542	1	C9H7+
122.9995	5	C5H3N2S+
125.015	2	C8HN2+
128.062	18	C10H8+
129.0699	20	C10H9+
133.0201	6	C4H7NO2S+
141.01	21	C8HN2O+
141.0697	2	C11H9+
147.0359	3	C5H9NO2S+
153.07	1	C12H9+
154.0777	17	C12H10+
159.0357	1	C6H9NO2S+
171.0358	39	C7H9NO2S+
173.0515	182	C7H11NO2S+
183.0358	24	C8H9NO2S+
185.0517	1	C8H11NO2S+
199.0305	4	C11H7N2S+
201.0464	358	C11H9N2S+
219.0569	999	C11H11N2OS+
221.0608	2	C10H11N3OS+
233.0726	75	C12H13N2OS+
279.0934	77	C12H15N4O2S+
