Mass spectrum: Arbutin; LC-ESI-QFT; MS2; CE: 90; R=17500; [M+H]+
Name: Arbutin
Name: (2R,3S,4S,5R,6S)-2-(hydroxymethyl)-6-(4-hydroxyphenoxy)oxane-3,4,5-triol
Formula: C12H16O7
Exact mass: 272.0896
SMILES: OC[C@H]1O[C@@H](OC2=CC=C(O)C=C2)[C@H](O)[C@@H](O)[C@@H]1O
InChI: InChI=1S/C12H16O7/c13-5-8-9(15)10(16)11(17)12(19-8)18-7-3-1-6(14)2-4-7/h1-4,8-17H,5H2/t8-,9-,10+,11-,12-/m1/s1
Instrument: Q Exactive Orbitrap (Thermo Scientific)
Instrument type: LC-ESI-QFT
Ms type: MS2
Ion mode: POSITIVE
Ionization: ESI
Fragmentation mode: HCD
Collision energy: 90
Resolution: 17500
Column name: Acquity BEH C18 1.7um, 2.1x150mm (Waters)
Retention time: 11.710 min
Base peak: 79.0211
Precursor m/z: 273.0969
Precursor type: [M+H]+
Precursor intensity: 1900186
m/z	relative intensity	assigned
53.0386	57	C4H5+
65.0385	999	C5H5+
66.0463	333	C5H6+
115.0546	23	C9H7+
157.0109	44	C6H5O5+
