Mass spectrum: Dulcin; LC-ESI-QFT; MS2; CE: 75; R=17500; [M+H]+
Name: Dulcin
Name: (4-ethoxyphenyl)urea
Formula: C9H12N2O2
Exact mass: 180.0899
SMILES: CCOC1=CC=C(NC(N)=O)C=C1
InChI: InChI=1S/C9H12N2O2/c1-2-13-8-5-3-7(4-6-8)11-9(10)12/h3-6H,2H2,1H3,(H3,10,11,12)
Instrument: Q Exactive Orbitrap (Thermo Scientific)
Instrument type: LC-ESI-QFT
Ms type: MS2
Ion mode: POSITIVE
Ionization: ESI
Fragmentation mode: HCD
Collision energy: 75
Resolution: 17500
Column name: Acquity BEH C18 1.7um, 2.1x150mm (Waters)
Retention time: 13.181 min
Base peak: 79.0211
Precursor m/z: 181.0972
Precursor type: [M+H]+
Precursor intensity: 9900269.8125
m/z	relative intensity	assigned
53.0386	4	C4H5+
55.0543	1	C4H7+
65.0385	240	C5H5+
67.0416	8	C4H5N+
67.0542	9	C5H7+
68.013	4	C3H2NO+
69.0334	1	C4H5O+
79.0542	1	C6H7+
80.0494	21	C5H6N+
81.0335	75	C5H5O+
81.0573	7	C5H7N+
82.0651	53	C5H8N+
83.0491	1	C5H7O+
90.0339	3	C6H4N+
91.0541	4	C7H7+
92.0495	117	C6H6N+
93.0335	71	C6H5O+
93.0573	58	C6H7N+
94.0651	5	C6H8N+
95.0491	7	C6H7O+
105.0447	3	C6H5N2+
108.0444	999	C6H6NO+
109.0522	50	C6H7NO+
110.06	482	C6H8NO+
111.044	205	C6H7O2+
121.0284	4	C7H5O2+
121.0396	12	C6H5N2O+
124.0756	1	C7H10NO+
125.0597	9	C7H9O2+
135.0439	1	C8H7O2+
136.0393	6	C7H6NO2+
136.0757	66	C8H10NO+
137.0834	2	C8H11NO+
138.0913	45	C8H12NO+
139.0751	1	C8H11O2+
146.0345	1	C9H6O2+
164.0704	1	C9H10NO2+
