Mass spectrum: Arbutin; LC-ESI-QFT; MS2; CE: 15; R=17500; [M-H]-
Name: Arbutin
Name: (2R,3S,4S,5R,6S)-2-(hydroxymethyl)-6-(4-hydroxyphenoxy)oxane-3,4,5-triol
Formula: C12H16O7
Exact mass: 272.0896
SMILES: OC[C@H]1O[C@@H](OC2=CC=C(O)C=C2)[C@H](O)[C@@H](O)[C@@H]1O
InChI: InChI=1S/C12H16O7/c13-5-8-9(15)10(16)11(17)12(19-8)18-7-3-1-6(14)2-4-7/h1-4,8-17H,5H2/t8-,9-,10+,11-,12-/m1/s1
Instrument: Q Exactive Orbitrap (Thermo Scientific)
Instrument type: LC-ESI-QFT
Ms type: MS2
Ion mode: NEGATIVE
Ionization: ESI
Fragmentation mode: HCD
Collision energy: 15
Resolution: 17500
Column name: Acquity BEH C18 1.7um, 2.1x150mm (Waters)
Retention time: 2.973 min
Base peak: 75.0088
Precursor m/z: 271.0823
Precursor type: [M-H]-
Precursor intensity: 428262.7182617
m/z	relative intensity	assigned
59.0138	19	C2H3O2-
71.0139	297	C3H3O2-
73.0295	79	C3H5O2-
83.0138	18	C4H3O2-
85.0296	63	C4H5O2-
95.0138	33	C5H3O2-
99.0089	48	C4H3O3-
101.0245	224	C4H5O3-
108.0217	999	C6H4O2-
109.0295	392	C6H5O2-
113.0245	217	C5H5O3-
121.0295	25	C7H5O2-
123.0088	20	C6H3O3-
123.045	24	C7H7O2-
133.0299	16	C8H5O2-
151.0401	226	C8H7O3-
159.0302	59	C6H7O5-
161.0456	316	C6H9O5-
163.0402	61	C9H7O3-
