Mass spectrum: 2,4,6-Tribromophenol; LC-ESI-QFT; MS2; CE: 75; R=17500; [M-H]-
Name: 2,4,6-Tribromophenol
Formula: C6H3Br3O
Exact mass: 327.7734
SMILES: OC1=C(Br)C=C(Br)C=C1Br
InChI: InChI=1S/C6H3Br3O/c7-3-1-4(8)6(10)5(9)2-3/h1-2,10H
Instrument: Q Exactive Orbitrap (Thermo Scientific)
Instrument type: LC-ESI-QFT
Ms type: MS2
Ion mode: NEGATIVE
Ionization: ESI
Fragmentation mode: HCD
Collision energy: 75
Resolution: 17500
Column name: Acquity BEH C18 1.7um, 2.1x150mm (Waters)
Retention time: 19.046 min
Base peak: 277.1444
Precursor m/z: 326.7661
Precursor type: [M-H]-
Precursor intensity: 4029283.751953
m/z	relative intensity	assigned
78.9189	999	Br-
