Mass spectrum: 2,3,4-Trihydroxbenzophenone; LC-ESI-QFT; MS2; CE: 15; R=17500; [M-H]-
Name: 2,3,4-Trihydroxbenzophenone
Name: 2,3,4-Trihydroxybenzophenone
Name: phenyl-(2,3,4-trihydroxyphenyl)methanone
Formula: C13H10O4
Exact mass: 230.0579
SMILES: OC1=CC=C(C(=O)C2=CC=CC=C2)C(O)=C1O
InChI: InChI=1S/C13H10O4/c14-10-7-6-9(12(16)13(10)17)11(15)8-4-2-1-3-5-8/h1-7,14,16-17H
Instrument: Q Exactive Orbitrap (Thermo Scientific)
Instrument type: LC-ESI-QFT
Ms type: MS2
Ion mode: NEGATIVE
Ionization: ESI
Fragmentation mode: HCD
Collision energy: 15
Resolution: 17500
Column name: Acquity BEH C18 1.7um, 2.1x150mm (Waters)
Retention time: 15.346 min
Base peak: 229.0505
Precursor m/z: 229.0506
Precursor type: [M-H]-
Precursor intensity: 36777056.17871
m/z	relative intensity	assigned
91.0189	20	C6H3O-
93.0346	150	C6H5O-
109.0294	7	C6H5O2-
135.0088	481	C7H3O3-
153.0193	145	C7H5O4-
185.0607	6	C12H9O2-
229.0505	999	C13H9O4-
