Mass spectrum: Sulfamethazine; LC-ESI-QFT; MS2; CE: 75; R=17500; [M+H]+
Name: Sulfamethazine
Name: 4-amino-N-(4,6-dimethylpyrimidin-2-yl)benzenesulfonamide
Formula: C12H14N4O2S
Exact mass: 278.0837
SMILES: CC1=CC(C)=NC(NS(=O)(=O)C2=CC=C(N)C=C2)=N1
InChI: InChI=1S/C12H14N4O2S/c1-8-7-9(2)15-12(14-8)16-19(17,18)11-5-3-10(13)4-6-11/h3-7H,13H2,1-2H3,(H,14,15,16)
Instrument: Q Exactive Orbitrap (Thermo Scientific)
Instrument type: LC-ESI-QFT
Ms type: MS2
Ion mode: POSITIVE
Ionization: ESI
Fragmentation mode: HCD
Collision energy: 75
Resolution: 17500
Column name: Acquity BEH C18 1.7um, 2.1x150mm (Waters)
Retention time: 16.910 min
Base peak: 79.0211
Precursor m/z: 279.091
Precursor type: [M+H]+
Precursor intensity: 37749145
m/z	relative intensity	assigned
50.0151	1	C4H2+
51.0228	5	C4H3+
53.0386	159	C4H5+
55.0178	7	C3H3O+
67.0542	1	C5H7+
68.997	1	C3HO2+
77.0385	89	C6H5+
78.0464	1	C6H6+
79.0542	3	C6H7+
81.0335	15	C5H5O+
81.0699	2	C6H9+
91.0542	10	C7H7+
94.0414	17	C6H6O+
95.0046	213	CH5NO2S+
95.0491	421	C6H7O+
97.0202	1	CH7NO2S+
97.0533	1	H9N4S+
105.0338	12	C7H5O+
105.0447	169	C6H5N2+
106.0417	1	C7H6O+
107.0044	9	C2H5NO2S+
108.0124	1	C2H6NO2S+
109.0202	2	C2H7NO2S+
109.0648	4	C7H9O+
113.015	13	C7HN2+
115.0542	10	C9H7+
116.0619	1	C9H8+
122.9994	31	C5H3N2S+
125.0151	19	C8HN2+
127.0308	2	C5H7N2S+
128.062	141	C10H8+
129.0698	134	C10H9+
133.0201	65	C4H7NO2S+
141.01	83	C8HN2O+
141.0698	29	C11H9+
142.0776	1	C11H10+
145.0201	6	C5H7NO2S+
147.0357	24	C5H9NO2S+
152.0621	6	C12H8+
153.0699	24	C12H9+
154.0777	115	C12H10+
155.0257	12	C6H7N2OS+
155.0853	3	C12H11+
159.036	5	C6H9NO2S+
165.0462	1	C11H5N2+
170.0282	6	C7H8NO2S+
171.0358	278	C7H9NO2S+
172.0441	1	C7H10NO2S+
173.0515	586	C7H11NO2S+
183.0358	155	C8H9NO2S+
185.0513	1	C8H11NO2S+
186.0232	3	C10H6N2S+
199.0307	15	C11H7N2S+
201.0464	344	C11H9N2S+
208.088	1	C10H14N3S+
217.0414	3	C11H9N2OS+
219.0569	999	C11H11N2OS+
221.0611	2	C10H11N3OS+
221.0961	1	C11H15N3S+
233.0726	75	C12H13N2OS+
279.0936	6	C12H15N4O2S+
