Mass spectrum: Benzimidazole; LC-ESI-QFT; MS2; CE: 45; R=17500; [M+H]+
Name: Benzimidazole
Name: 1H-benzimidazole
Formula: C7H6N2
Exact mass: 118.0531
SMILES: N1C=NC2=C1C=CC=C2
InChI: InChI=1S/C7H6N2/c1-2-4-7-6(3-1)8-5-9-7/h1-5H,(H,8,9)
Instrument: Q Exactive Orbitrap (Thermo Scientific)
Instrument type: LC-ESI-QFT
Ms type: MS2
Ion mode: POSITIVE
Ionization: ESI
Fragmentation mode: HCD
Collision energy: 45
Resolution: 17500
Column name: Acquity BEH C18 1.7um, 2.1x150mm (Waters)
Retention time: 4.371 min
Base peak: 79.0212
Precursor m/z: 119.0604
Precursor type: [M+H]+
Precursor intensity: 19443142.09375
m/z	relative intensity	assigned
65.0385	1	C5H5+
91.0542	1	C7H7+
92.0494	8	C6H6N+
119.0603	999	C7H7N2+
