Mass spectrum: 2-Amino-5-methylbenzenesulfonic acid; LC-ESI-QFT; MS2; CE: 75; R=17500; [M-H]-
Name: 2-Amino-5-methylbenzenesulfonic acid
Formula: C7H9NO3S
Exact mass: 187.0303
SMILES: CC1=CC=C(N)C(=C1)S(O)(=O)=O
InChI: InChI=1S/C7H9NO3S/c1-5-2-3-6(8)7(4-5)12(9,10)11/h2-4H,8H2,1H3,(H,9,10,11)
Instrument: Q Exactive Orbitrap (Thermo Scientific)
Instrument type: LC-ESI-QFT
Ms type: MS2
Ion mode: NEGATIVE
Ionization: ESI
Fragmentation mode: HCD
Collision energy: 75
Resolution: 17500
Column name: Acquity BEH C18 1.7um, 2.1x150mm (Waters)
Retention time: 6.262 min
Base peak: 186.023
Precursor m/z: 186.023
Precursor type: [M-H]-
Precursor intensity: 5152346.310547
m/z	relative intensity	assigned
79.9574	999	O3S-
80.9652	4	HO3S-
107.0376	8	C6H5NO-
121.0533	30	C7H7NO-
122.0612	109	C7H8NO-
186.0231	85	C7H8NO3S-
