Mass spectrum: N-(3-Aminophenyl)propanamide; LC-ESI-QFT; MS2; CE: 90; R=17500; [M+H]+
Name: N-(3-Aminophenyl)propanamide
Formula: C9H12N2O
Exact mass: 164.0950
SMILES: CCC(=O)NC1=CC(N)=CC=C1
InChI: InChI=1S/C9H12N2O/c1-2-9(12)11-8-5-3-4-7(10)6-8/h3-6H,2,10H2,1H3,(H,11,12)
Instrument: Q Exactive Orbitrap (Thermo Scientific)
Instrument type: LC-ESI-QFT
Ms type: MS2
Ion mode: POSITIVE
Ionization: ESI
Fragmentation mode: HCD
Collision energy: 90
Resolution: 17500
Column name: Acquity BEH C18 1.7um, 2.1x150mm (Waters)
Retention time: 12.657 min
Base peak: 79.0211
Precursor m/z: 165.1022
Precursor type: [M+H]+
Precursor intensity: 13766527.3125
m/z	relative intensity	assigned
53.0386	11	C4H5+
55.0178	1	C3H3O+
56.0131	19	C2H2NO+
65.0385	9	C5H5+
72.0443	999	C3H6NO+
77.0385	6	C6H5+
81.0335	1	C5H5O+
91.0543	1	C7H7+
92.0495	49	C6H6N+
94.0652	3	C6H8N+
95.0491	37	C6H7O+
105.0447	17	C6H5N2+
109.0522	1	C6H7NO+
120.0443	6	C7H6NO+
